[TITLE]
TEST PROBLEM USER1

[OPTIONS]
 FLOW_UNITS            CMS
 INFILTRATION          HORTON
 FLOW_ROUTING          DYNWAVE
 START_DATE            10/01/2003
 START_TIME            00:00:00
 REPORT_START_DATE     10/01/2003
 REPORT_START_TIME     00:00:00
 END_DATE              10/01/2003
 END_TIME              07:00:00
 SWEEP_START           01/01
 SWEEP_END             12/31
 DRY_DAYS              0
 REPORT_STEP           00:01:00
 WET_STEP              00:05:00
 DRY_STEP              24:00:00
 ROUTING_STEP          0:00:05 
 ALLOW_PONDING         NO
 INERTIAL_DAMPING      NONE
 VARIABLE_STEP         0.00
 LENGTHENING_STEP      0
 MIN_SURFAREA          12.566
 NORMAL_FLOW_LIMITED   BOTH
 SKIP_STEADY_STATE     NO
 THREADS               1
 
[EVAPORATION]
;;Type         Parameters
;;-----------------------
  MONTHLY      0      0      0      0      0      0      0      0      0      0      0      0     

[RAINGAGES]
;;                 Rain      Recd.  Snow   Data       Source           Station    Rain 
;;Name             Type      Freq.  Catch  Source     Name             ID         Units
;;-------------------------------------------------------------------------------------
  GAGE1            VOLUME    0.08333 1.0    TIMESERIES RainSeries1     

[SUBCATCHMENTS]
;;                                                   Total    Pcnt.             Pcnt.    Curb     Snow
;;Name             Raingage         Outlet           Area     Imperv   Width    Slope    Length   Pack
;;----------------------------------------------------------------------------------------------------
  c3y51            GAGE1            03y51            0.76     70.0     54.3     34.3     0                        
  c2y48            GAGE1            02y48            1.36     70.0     64.76    17.6     0                        
  c3y49            GAGE1            03y49            1.66     70.0     83.0     35.5     0                        
  c4y48            GAGE1            04y48            2.75     70.0     110.0    8.4      0                        
  c3y48            GAGE1            03y48            2.95     70.0     134.09   51.8     0                        
  c2y47S           GAGE1            02y47S           2.3      70.0     115.0    35.5     0                        
  c3y47            GAGE1            03y47            0.67     70.0     134.0    44.0     0                        
  c3y46            GAGE1            03y46            0.75     70.0     41.67    21.1     0                        
  c3y45            GAGE1            03y45            3.12     70.0     80.0     24.6     0                        
  c1y46            GAGE1            01y46            8.41     70.0     186.89   52.4     0                        
  c2y47N           GAGE1            02y47N           2.28     70.0     108.57   31.4     0                        
  c2y46            GAGE1            02y46            1.0      70.0     71.43    83.6     0                        
  c1y43S           GAGE1            01y43S           1.55     70.0     110.71   15.7     0                        
  c1e43y44         GAGE1            01e43y44         1.15     70.0     153.33   54.7     0                        
  c1y44            GAGE1            01y44            0.13     70.0     52.0     68.0     0                        
  c2y44            GAGE1            02y44            1.0      70.0     71.43    55.6     0                        
  c4y44S           GAGE1            04y44S           2.05     70.0     146.43   157.1    0                        
  c3y44S           GAGE1            03y44S           4.6      70.0     102.22   36.9     0                        
  c1y43N           GAGE1            01y43N           2.25     70.0     78.95    21.4     0                        
  c2y43            GAGE1            02y43            2.06     70.0     164.8    27.2     0                        
  c3y44N           GAGE1            03y44N           2.48     70.0     95.38    47.7     0                        
  c4y44N           GAGE1            04y44N           2.12     70.0     88.33    108.3    0                        
  c5y44            GAGE1            05y44            4.0      70.0     114.29   118.6    0                        
  c5y43            GAGE1            05y43            1.0      70.0     71.43    65.7     0                        
  c5y42            GAGE1            05y42            10.0     70.0     194.17   56.7     0                        
  c5y41            GAGE1            05y41            5.18     70.0     123.33   101.4    0                        
  c5y39            GAGE1            05y39            4.78     70.0     119.5    100.3    0                        
  c5y38            GAGE1            05y38            1.51     70.0     111.85   59.3     0                        
  c5y37            GAGE1            05y37            2.04     70.0     163.2    200.8    0                        
  c1y40            GAGE1            01y40            5.88     70.0     150.77   33.3     0                        
  c2y40            GAGE1            02y40            3.12     70.0     141.82   31.8     0                        
  c2y39            GAGE1            02y39            3.33     70.0     128.08   34.2     0                        
  c3y39            GAGE1            03y39            1.81     70.0     48.92    36.8     0                        
  c3y38            GAGE1            03y38            2.53     70.0     90.36    75.0     0                        
  c3y37            GAGE1            03y37            4.75     70.0     113.1    76.4     0                        
  c4y37            GAGE1            04y37            6.06     70.0     216.43   147.5    0                        
  c4y36            GAGE1            04y36            1.89     70.0     67.5     91.4     0                        
  c5y36            GAGE1            05y36            2.91     70.0     207.86   175.7    0                        
  c5y35            GAGE1            05y35            5.5      70.0     79.14    91.2     0                        
  c5y34            GAGE1            05y34            1.98     70.0     70.71    78.9     0                        
  c5y33            GAGE1            05y33            2.56     70.0     91.43    114.3    0                        
  c2y34            GAGE1            02y34            1.05     70.0     37.5     106.4    0                        
  c1y33            GAGE1            01y33            11.73    70.0     170.0    62.0     0                        
  c2y33            GAGE1            02y33            5.44     70.0     126.51   130.7    0                        
  c3y33            GAGE1            03y33            3.3      70.0     77.65    101.4    0                        
  c2y532           GAGE1            02y532           2.98     40.0     165.56   205.6    0                        
  c3y32            GAGE1            03y32            3.25     40.0     127.45   80.8     0                        
  c4y32            GAGE1            04y32            7.6      40.0     140.74   119.8    0                        
  c5y32            GAGE1            05y32            2.65     40.0     94.64    94.6     0                        
  c2y35            GAGE1            02y35            4.41     70.0     106.26   82.4     0                        
  c5yD77           GAGE1            05yD77           0.58     70.0     41.43    42.1     0                        
  c5y46            GAGE1            05y46            3.25     70.0     116.0    27.5     0                        
  c5y47            GAGE1            05y47            2.88     70.0     117.5    22.4     0                        
  c5y48            GAGE1            05y48            1.18     25.0     84.3     20.7     0                        
  c5e48y49         GAGE1            05e48y49         1.2      70.0     75.0     11.9     0                        
  c5y49            GAGE1            05y49            1.0      70.0     62.5     43.8     0                        
  c5y50            GAGE1            05y50            2.56     70.0     93.1     25.5     0                        
  c5y51            GAGE1            05y51            1.41     70.0     108.5    22.3     0                        

[SUBAREAS]
;;Subcatchment     N-Imperv   N-Perv     S-Imperv   S-Perv     PctZero    RouteTo    PctRouted
;;--------------------------------------------------------------------------------------------
  c3y51            0.1        0.001      0.05       0.05       25         OUTLET    
  c2y48            0.1        0.001      0.05       0.05       25         OUTLET    
  c3y49            0.1        0.001      0.05       0.05       25         OUTLET    
  c4y48            0.1        0.001      0.05       0.05       25         OUTLET    
  c3y48            0.1        0.001      0.05       0.05       25         OUTLET    
  c2y47S           0.1        0.001      0.05       0.05       25         OUTLET    
  c3y47            0.1        0.001      0.05       0.05       25         OUTLET    
  c3y46            0.1        0.001      0.05       0.05       25         OUTLET    
  c3y45            0.1        0.001      0.05       0.05       25         OUTLET    
  c1y46            0.1        0.001      0.05       0.05       25         OUTLET    
  c2y47N           0.1        0.001      0.05       0.05       25         OUTLET    
  c2y46            0.1        0.001      0.05       0.05       25         OUTLET    
  c1y43S           0.1        0.001      0.05       0.05       25         OUTLET    
  c1e43y44         0.1        0.001      0.05       0.05       25         OUTLET    
  c1y44            0.1        0.001      0.05       0.05       25         OUTLET    
  c2y44            0.1        0.001      0.05       0.05       25         OUTLET    
  c4y44S           0.1        0.001      0.05       0.05       25         OUTLET    
  c3y44S           0.1        0.001      0.05       0.05       25         OUTLET    
  c1y43N           0.1        0.001      0.05       0.05       25         OUTLET    
  c2y43            0.1        0.001      0.05       0.05       25         OUTLET    
  c3y44N           0.1        0.001      0.05       0.05       25         OUTLET    
  c4y44N           0.1        0.001      0.05       0.05       25         OUTLET    
  c5y44            0.1        0.001      0.05       0.05       25         OUTLET    
  c5y43            0.1        0.001      0.05       0.05       25         OUTLET    
  c5y42            0.1        0.001      0.05       0.05       25         OUTLET    
  c5y41            0.1        0.001      0.05       0.05       25         OUTLET    
  c5y39            0.1        0.001      0.05       0.05       25         OUTLET    
  c5y38            0.1        0.001      0.05       0.05       25         OUTLET    
  c5y37            0.1        0.001      0.05       0.05       25         OUTLET    
  c1y40            0.1        0.001      0.05       0.05       25         OUTLET    
  c2y40            0.1        0.001      0.05       0.05       25         OUTLET    
  c2y39            0.1        0.001      0.05       0.05       25         OUTLET    
  c3y39            0.1        0.001      0.05       0.05       25         OUTLET    
  c3y38            0.1        0.001      0.05       0.05       25         OUTLET    
  c3y37            0.1        0.001      0.05       0.05       25         OUTLET    
  c4y37            0.1        0.001      0.05       0.05       25         OUTLET    
  c4y36            0.1        0.001      0.05       0.05       25         OUTLET    
  c5y36            0.1        0.001      0.05       0.05       25         OUTLET    
  c5y35            0.1        0.001      0.05       0.05       25         OUTLET    
  c5y34            0.1        0.001      0.05       0.05       25         OUTLET    
  c5y33            0.1        0.001      0.05       0.05       25         OUTLET    
  c2y34            0.1        0.001      0.05       0.05       25         OUTLET    
  c1y33            0.1        0.001      0.05       0.05       25         OUTLET    
  c2y33            0.1        0.001      0.05       0.05       25         OUTLET    
  c3y33            0.1        0.001      0.05       0.05       25         OUTLET    
  c2y532           0.1        0.001      0.05       0.05       25         OUTLET    
  c3y32            0.1        0.001      0.05       0.05       25         OUTLET    
  c4y32            0.1        0.001      0.05       0.05       25         OUTLET    
  c5y32            0.1        0.001      0.05       0.05       25         OUTLET    
  c2y35            0.1        0.001      0.05       0.05       25         OUTLET    
  c5yD77           0.1        0.001      0.05       0.05       25         OUTLET    
  c5y46            0.1        0.001      0.05       0.05       25         OUTLET    
  c5y47            0.1        0.001      0.05       0.05       25         OUTLET    
  c5y48            0.1        0.001      0.05       0.05       25         OUTLET    
  c5e48y49         0.1        0.001      0.05       0.05       25         OUTLET    
  c5y49            0.1        0.001      0.05       0.05       25         OUTLET    
  c5y50            0.1        0.001      0.05       0.05       25         OUTLET    
  c5y51            0.1        0.001      0.05       0.05       25         OUTLET    

[INFILTRATION]
;;Subcatchment     MaxRate    MinRate    Decay      DryTime    MaxInfil  
;;-----------------------------------------------------------------------
  c3y51            50.0       7.5        2.016      0.04134    0         
  c2y48            50.0       7.5        2.016      0.04134    0         
  c3y49            50.0       7.5        2.016      0.04134    0         
  c4y48            50.0       7.5        2.016      0.04134    0         
  c3y48            50.0       7.5        2.016      0.04134    0         
  c2y47S           50.0       7.5        2.016      0.04134    0         
  c3y47            50.0       7.5        2.016      0.04134    0         
  c3y46            50.0       7.5        2.016      0.04134    0         
  c3y45            50.0       7.5        2.016      0.04134    0         
  c1y46            50.0       7.5        2.016      0.04134    0         
  c2y47N           50.0       7.5        2.016      0.04134    0         
  c2y46            50.0       7.5        2.016      0.04134    0         
  c1y43S           50.0       7.5        2.016      0.04134    0         
  c1e43y44         50.0       7.5        2.016      0.04134    0         
  c1y44            50.0       7.5        2.016      0.04134    0         
  c2y44            50.0       7.5        2.016      0.04134    0         
  c4y44S           50.0       7.5        2.016      0.04134    0         
  c3y44S           50.0       7.5        2.016      0.04134    0         
  c1y43N           50.0       7.5        2.016      0.04134    0         
  c2y43            50.0       7.5        2.016      0.04134    0         
  c3y44N           50.0       7.5        2.016      0.04134    0         
  c4y44N           50.0       7.5        2.016      0.04134    0         
  c5y44            50.0       7.5        2.016      0.04134    0         
  c5y43            50.0       7.5        2.016      0.04134    0         
  c5y42            50.0       7.5        2.016      0.04134    0         
  c5y41            50.0       7.5        2.016      0.04134    0         
  c5y39            50.0       7.5        2.016      0.04134    0         
  c5y38            50.0       7.5        2.016      0.04134    0         
  c5y37            50.0       7.5        2.016      0.04134    0         
  c1y40            50.0       7.5        2.016      0.04134    0         
  c2y40            50.0       7.5        2.016      0.04134    0         
  c2y39            50.0       7.5        2.016      0.04134    0         
  c3y39            50.0       7.5        2.016      0.04134    0         
  c3y38            50.0       7.5        2.016      0.04134    0         
  c3y37            50.0       7.5        2.016      0.04134    0         
  c4y37            50.0       7.5        2.016      0.04134    0         
  c4y36            50.0       7.5        2.016      0.04134    0         
  c5y36            50.0       7.5        2.016      0.04134    0         
  c5y35            50.0       7.5        2.016      0.04134    0         
  c5y34            50.0       7.5        2.016      0.04134    0         
  c5y33            50.0       7.5        2.016      0.04134    0         
  c2y34            50.0       7.5        2.016      0.04134    0         
  c1y33            50.0       7.5        2.016      0.04134    0         
  c2y33            50.0       7.5        2.016      0.04134    0         
  c3y33            50.0       7.5        2.016      0.04134    0         
  c2y532           50.0       7.5        2.016      0.04134    0         
  c3y32            50.0       7.5        2.016      0.04134    0         
  c4y32            50.0       7.5        2.016      0.04134    0         
  c5y32            50.0       7.5        2.016      0.04134    0         
  c2y35            50.0       7.5        2.016      0.04134    0         
  c5yD77           50.0       7.5        2.016      0.04134    0         
  c5y46            50.0       7.5        2.016      0.04134    0         
  c5y47            50.0       7.5        2.016      0.04134    0         
  c5y48            50.0       7.5        2.016      0.04134    0         
  c5e48y49         50.0       7.5        2.016      0.04134    0         
  c5y49            50.0       7.5        2.016      0.04134    0         
  c5y50            50.0       7.5        2.016      0.04134    0         
  c5y51            50.0       7.5        2.016      0.04134    0         

[JUNCTIONS]
;;                 Invert     Max.       Init.      Surcharge  Ponded    
;;Name             Elev.      Depth      Depth      Depth      Area      
;;------------------------------------------------------------------------
  01e43y44         16.08      2.66       .00        0          0         
  01y33            8.23       5.29       .00        0          0         
  01y40            14.89      2.75       .00        0          0         
  01y43N           16.88      1.57       .00        0          0         
  01y43S           16.34      2.11       .00        0          0         
  01y44            15.58      3.50       .00        0          0         
  01y46            12.41      5.35       .00        0          0         
  02y33            5.67       4.43       .00        0          0         
  02y34            8.10       4.63       .00        0          0         
  02y35            10.06      4.73       .00        0          0         
  02y39            12.47      5.31       .00        0          0         
  02y40            14.17      4.03       .00        0          0         
  02y43            16.21      2.44       .00        0          0         
  02y44            11.12      7.20       .00        0          0         
  02y46            11.89      6.21       .00        0          0         
  02y47N           12.97      5.53       .00        0          0         
  02y47S           17.16      1.34       .00        0          0         
  02y48            17.68      1.15       .00        0          0         
  02y532           6.59       3.20       .00        0          0         
  03y32            5.06       2.98       .00        0          0         
  03y33            5.58       4.90       .00        0          0         
  03y37            8.95       6.43       .00        0          0         
  03y38            9.97       5.70       .00        0          0         
  03y39            11.18      5.95       .00        0          0         
  03y43            15.46      3.44       .00        0          0         
  03y44N           14.26      3.15       .00        0          0         
  03y44S           10.31      7.10       .00        0          0         
  03y45            15.32      2.11       .00        0          0         
  03y46            15.89      3.38       .00        0          0         
  03y47            16.45      2.75       .00        0          0         
  03y48            16.90      2.08       .00        0          0         
  03y49            17.41      1.85       .00        0          0         
  03y51            18.58      1.67       .00        0          0         
  04y32            4.52       2.75       .00        0          0         
  04y36            6.75       6.07       .00        0          0         
  04y37            7.85       4.65       .00        0          0         
  04y44N           13.31      2.69       .00        0          0         
  04y44S           9.39       6.91       .00        0          0         
  04y48            17.93      1.22       .00        0          0         
  05e48y49         17.60      2.07       .00        0          0         
  05y32            .25        6.62       .00        0          0         
  05y33            3.73       4.96       .00        0          0         
  05y34            4.17       5.94       .00        0          0         
  05y35            4.61       6.26       .00        0          0         
  05y36            5.03       5.34       .00        0          0         
  05y37            5.62       5.86       .00        0          0         
  05y38            6.01       7.99       .00        0          0         
  05y39            6.41       8.38       .00        0          0         
  05y41            7.16       7.38       .00        0          0         
  05y42            7.66       8.34       .00        0          0         
  05y43            8.03       7.95       .00        0          0         
  05y44            8.30       6.05       .00        0          0         
  05y46            16.13      2.37       .00        0          0         
  05y47            16.66      2.50       .00        0          0         
  05y48            17.15      2.24       .00        0          0         
  05y49            17.79      1.65       .00        0          0         
  05y50            18.16      1.55       .00        0          0         
  05y51            18.76      1.38       .00        0          0         
  05yD77           12.94      5.18       .00        0          0         

[OUTFALLS]
;;                 Invert     Outfall    Stage/Table      Tide
;;Name             Elev.      Type       Time Series      Gate
;;------------------------------------------------------------
  Cierre           -0.19      FREE                        NO

[CONDUITS]
;;                 Inlet            Outlet                      Manning    Inlet      Outlet     Init.      Maximum
;;Name             Node             Node             Length     N          Height     Height     Flow       Flow
;;------------------------------------------------------------------------------------------------------------------------
  1                05y32            Cierre           290.0      0.013      0.0        0.0        0.0        0         
  2                05y33            05y32            135.0      0.013      0.0        0.0        0.0        0         
  3                04y32            05y32            150.0      0.013      0.0        0.6        0.0        0         
  4                03y32            04y32            125.0      0.013      0.0        0.0        0.0        0         
  5                02y532           03y32            160.0      0.013      0.0        0.6        0.0        0         
  6                03y33            03y32            130.0      0.013      0.0        0.0        0.0        0         
  7                02y33            03y33            145.0      0.013      0.0        0.0        0.0        0         
  8                01y33            02y33            140.0      0.013      0.0        0.6        0.0        0         
  9                02y34            02y33            140.0      0.013      0.0        0.6        0.0        0         
  10               02y35            02y34            140.0      0.013      0.0        0.0        0.0        0         
  11               05y34            05y33            140.0      0.013      0.0        0.0        0.0        0         
  12               05y35            05y34            140.0      0.013      0.0        0.0        0.0        0         
  13               05y36            05y35            140.0      0.013      0.0        0.0        0.0        0         
  14               04y36            05y36            140.0      0.013      0.0        0.62       0.0        0         
  15               04y37            04y36            140.0      0.013      0.0        0.0        0.0        0         
  16               03y37            04y37            140.0      0.013      0.0        0.0        0.0        0         
  17               03y38            03y37            140.0      0.013      0.0        0.0        0.0        0         
  18               03y39            03y38            145.0      0.013      0.0        0.0        0.0        0         
  19               02y39            03y39            140.0      0.013      0.0        0.0        0.0        0         
  20               05y37            05y36            135.0      0.013      0.0        0.2        0.0        0         
  21               05y38            05y37            145.0      0.013      0.0        0.0        0.0        0         
  22               05y39            05y38            145.0      0.013      0.0        0.0        0.0        0         
  23               05y41            05y39            275.0      0.013      0.0        0.0        0.0        0         
  24               05y42            05y41            145.0      0.013      0.0        0.1        0.0        0         
  25               02y40            02y39            140.0      0.013      0.0        0.6        0.0        0         
  26               01y40            02y40            120.0      0.013      0.0        0.0        0.0        0         
  27               05y43            05y42            135.0      0.013      0.0        0.0        0.0        0         
  28               05y44            05y43            135.0      0.013      0.0        0.0        0.0        0         
  29               01y43N           02y43            125.0      0.013      0.0        0.05       0.0        0         
  30               02y43            03y43            140.0      0.013      0.0        0.05       0.0        0         
  31               03y43            03y44N           145.0      0.013      0.0        0.5        0.0        0         
  34               01y44            02y44            140.0      0.013      0.0        3.9        0.0        0         
  35               02y44            03y44S           135.0      0.013      0.0        0.0        0.0        0         
  37               01y46            02y46            130.0      0.013      0.0        0.0        0.0        0         
  38               02y47N           02y46            110.0      0.013      0.0        0.6        0.0        0         
  41               02y47S           03y47            120.0      0.013      0.0        0.2        0.0        0         
  42               04y48            03y48            140.0      0.013      0.0        0.27       0.0        0         
  43               02y48            03y48            140.0      0.013      0.0        0.2        0.0        0         
  44               03y51            03y49            150.0      0.013      0.0        0.2        0.0        0         
  45               03y49            03y48            110.0      0.013      0.0        0.0        0.0        0         
  46               03y48            03y47            110.0      0.013      0.0        0.0        0.0        0         
  47               03y47            03y46            110.0      0.013      0.0        0.1        0.0        0         
  48               03y46            03y45            140.0      0.013      0.0        0.0        0.0        0         
  49               03y45            03y44S           140.0      0.013      0.0        0.6        0.0        0         
  50               03y44N           04y44N           140.0      0.013      0.0        0.0        0.0        0         
  51               04y44N           05y44            140.0      0.013      0.3        3.57       0.0        0         
  52               03y44S           04y44S           150.0      0.013      0.0        0.0        0.0        0         
  53               04y44S           05y44            140.0      0.013      0.0        0.1        0.0        0         
  54               01y43S           01e43y44         65.0       0.013      0.0        0.0        0.0        0         
  55               01e43y44         01y44            75.0       0.013      0.0        0.2        0.0        0         
  64               05yD77           05y44            245.0      0.013      0.0        3.79       0.0        0         
  65               05y46            05yD77           40.0       0.013      0.0        0.0        0.0        0         
  66               05y47            05y46            115.0      0.013      0.0        0.0        0.0        0         
  68               05y48            05y47            105.0      0.013      0.0        0.0        0.0        0         
  69               05e48y49         05y48            65.0       0.013      0.0        0.15       0.0        0         
  70               05y49            05e48y49         40.0       0.013      0.0        0.0        0.0        0         
  71               05y50            05y49            80.0       0.013      0.0        0.0        0.0        0         
  72               05y51            05y50            70.0       0.013      0.0        0.0        0.0        0         