[TITLE]
Example User3

[OPTIONS]
 FLOW_UNITS            CMS
 INFILTRATION          HORTON
 FLOW_ROUTING          DYNWAVE
 START_DATE            01/01/1999
 START_TIME            01:00:00
 REPORT_START_DATE     01/01/1999
 REPORT_START_TIME     01:00:00
 END_DATE              01/01/1999
 END_TIME              07:00:00
 SWEEP_START           01/01
 SWEEP_END             12/31
 DRY_DAYS              0
 REPORT_STEP           00:01:00
 WET_STEP              00:01:00
 DRY_STEP              00:10:00
 ROUTING_STEP          0.5
 ALLOW_PONDING         NO
 INERTIAL_DAMPING      NONE
 VARIABLE_STEP         0.00
 LENGTHENING_STEP      0
 MIN_SURFAREA          0
 NORMAL_FLOW_LIMITED   BOTH
 SKIP_STEADY_STATE     NO
 THREADS               1
 
[EVAPORATION]
;;Type         Parameters
;;-----------------------
  CONSTANT     3.0     

[RAINGAGES]
;;                 Rain      Recd.  Snow   Data       Source           Station    Rain 
;;Name             Type      Freq.  Catch  Source     Name             ID         Units
;;-------------------------------------------------------------------------------------
  GAGE1            INTENSITY 0.25000 1.0    TIMESERIES RainSeries1     

[SUBCATCHMENTS]
;;                                                   Total    Pcnt.             Pcnt.    Curb     Snow
;;Name             Raingage         Outlet           Area     Imperv   Width    Slope    Length   Pack
;;----------------------------------------------------------------------------------------------------
  CMCPWIN          GAGE1            CMCPWIN-I        17.15    76.0     2573.0   1.0      0                        
  CMCPBAN          GAGE1            CMCPBAN-I        8.648    83.0     1297.0   1.0      0                        
  CMCPELG          GAGE1            CMCPELG-I        6.915    48.0     1037.0   1.0      0                        
  CMCPPAC          GAGE1            CMCPPAC-I        11.38    83.0     1707.0   1.0      0                        
  CPAC72           GAGE1            CPAC72-I         11.81    50.0     1772.0   1.0      0                        
  CPAC75           GAGE1            CPAC75-I         11.7     60.0     1755.0   1.0      0                        
  CALEXAN          GAGE1            CALEXAN-I        0.849    80.0     127.0    1.0      0                        
  CLOG80           GAGE1            CLOG80-I         5.908    90.0     886.0    1.0      0                        
  CHEN90           GAGE1            CHEN90-I         14.04    42.0     2106.0   1.0      0                        
  CHIGMAU          GAGE1            CHIGMAU-I        7.268    74.0     1090.0   1.0      0                        
  CHEN90-R         GAGE1            CHEN90-I         5.816    10.0     872.0    1.0      0                        
  CHIGMAU-R        GAGE1            CHIGMAU-I        4.712    10.0     707.0    1.0      0                        
  CMCPLOG          GAGE1            CMCPLOG-I        9.154    40.0     1373.0   1.0      0                        
  CLOGYEO          GAGE1            CLOGYEO-I        4.561    20.0     684.0    1.0      0                        
  CLOGYEO-R        GAGE1            CLOGYEO-I        0.4778   10.0     72.0     1.0      0                        
  CLOGWNK          GAGE1            CLOGWNK-I        11.92    35.0     1788.0   1.0      0                        
  CLOGCEC-R        GAGE1            CLOGCEC-I        27.44    10.0     4116.0   1.0      0                        
  CLOGQUE-R        GAGE1            CLOGQUE-I        4.172    18.0     626.0    1.0      0                        
  CLOGVIN-R        GAGE1            CLOGVIN-I        11.81    10.0     1772.0   1.0      0                        
  CLOGWNK-R        GAGE1            CLOGWNK-I        2.325    10.0     349.0    1.0      0                        
  CLOGELE          GAGE1            CLOGELE-I        7.259    40.0     1089.0   1.0      0                        
  CLOGVIN          GAGE1            CLOGVIN-I        10.68    65.0     1602.0   1.0      0                        
  CLOGQUE          GAGE1            CLOGQUE-I        1.654    60.0     248.0    1.0      0                        
  CLOGCEC          GAGE1            CLOGCEC-I        9.36     55.0     1404.0   1.0      0                        
  CCECROY          GAGE1            CCECROY-I        1.682    55.0     252.0    1.0      0                        
  SMCPWIN1         GAGE1            SMYRWIN-I        8.575    80.0     1286.0   1.0      0                        
  SMCPWIN2         GAGE1            SMCPMCD-I        8.575    72.0     1286.0   1.0      0                        
  SMCPBAN          GAGE1            SLARWIL-I        8.648    83.0     1297.0   1.0      0                        
  SMCPELG          GAGE1            SXANELG-I        6.915    48.0     1037.0   1.0      0                        
  SMCPPAC          GAGE1            SXANELG-I        11.38    83.0     1707.0   1.0      0                        
  SPAC72           GAGE1            SXANALE-I        11.81    50.0     1772.0   1.0      0                        
  SPAC75           GAGE1            SXANALE-I        11.7     60.0     1755.0   1.0      0                        
  SXANALE          GAGE1            SXANALE-I        0.849    80.0     127.0    1.0      0                        
  SLOG80           GAGE1            SMCP85-I         5.908    90.0     886.0    1.0      0                        
  SHEN90           GAGE1            SALEMAU-I        14.04    42.0     2106.0   1.0      0                        
  SHIGMAU          GAGE1            SMAULOG-I        7.268    74.0     1090.0   1.0      0                        
  SHEN90-R         GAGE1            SMAULOG-I        5.816    10.0     872.0    1.0      0                        
  SHIGMAU-R        GAGE1            SMAULOG-I        4.712    10.0     707.0    1.0      0                        
  SMCPLOG          GAGE1            SMCP85-I         9.154    40.0     1373.0   1.0      0                        
  SLOGYEO          GAGE1            SDUM1-I          4.561    20.0     684.0    1.0      0                        
  SLOGYEO-R        GAGE1            SALEMAU-I        0.478    10.0     72.0     1.0      0                        
  SLOGWNK          GAGE1            SDUM1-I          11.92    35.0     1788.0   1.0      0                        
  SLOGCEC-R        GAGE1            SDUM2-I          27.44    10.0     4116.0   1.0      0                        
  SLOGQUE-R        GAGE1            SDUM2-I          4.172    18.0     626.0    1.0      0                        
  SLOGVIN-R        GAGE1            SALEMAU-I        11.81    10.0     1772.0   1.0      0                        
  SLOGWNK-R        GAGE1            SALEMAU-I        2.325    10.0     349.0    1.0      0                        
  SLOGELE          GAGE1            SDUM1-I          7.259    40.0     1089.0   1.0      0                        
  SLOGVIN          GAGE1            SDUM2-I          10.68    65.0     1602.0   1.0      0                        
  SLOGQUE          GAGE1            SDUM2-I          1.654    60.0     248.0    1.0      0                        
  SLOGCEC          GAGE1            SDUM3-I          9.36     55.0     1404.0   1.0      0                        
  SCECROY          GAGE1            SDUM3-I          1.682    55.0     252.0    1.0      0                        
  CLIPSAR          GAGE1            CLIPSAR-I        13.52    58.0     2028.0   1.0      0                        
  CSARBUR          GAGE1            CSARBUR-I        6.089    55.0     913.0    1.0      0                        
  CSARARL          GAGE1            CSARARL-I        13.84    58.0     2076.0   1.0      0                        
  CLIPWEL          GAGE1            CLIPWEL-I        15.0     60.0     2250.0   1.0      0                        
  CWELSHB          GAGE1            CWELSHB-I        4.759    55.0     714.0    1.0      0                        
  CWELDOM          GAGE1            CWELDOM-I        14.57    53.0     2186.0   1.0      0                        
  CLIPNOT          GAGE1            CLIPNOT-I        9.946    73.0     1492.0   1.0      0                        
  CNOTDOM          GAGE1            CNOTDOM-I        27.62    55.0     4143.0   1.0      0                        
  CNOTSHB          GAGE1            CNOTSHB-I        11.66    59.0     1749.0   1.0      0                        
  SLIPSAR          GAGE1            SSHBSAR-I        13.52    58.0     2028.0   1.0      0                        
  SSARBUR          GAGE1            SALVSAR-I        6.089    55.0     913.0    1.0      0                        
  SSARARL1         GAGE1            SSIMSAR-I        4.613    59.53    692.0    1.0      0                        
  SSARARL2         GAGE1            SALVWEL-I        4.613    59.53    692.0    1.0      0                        
  SSARARL3         GAGE1            SSIMWEL-I        4.613    55.0     692.0    1.0      0                        
  SLIPWEL1         GAGE1            SALVWEL-I        10.5     60.0     1575.0   1.0      0                        
  SLIPWEL2         GAGE1            SSHBWEL-I        4.5      60.0     675.0    1.0      0                        
  SWELSHB          GAGE1            SSHBWEL-I        4.759    55.0     714.0    1.0      0                        
  SWELDOM          GAGE1            SWELDOM-I        14.57    53.0     2186.0   1.0      0                        
  SLIPNOT1         GAGE1            SSHBNOT-I        4.973    56.0     746.0    1.0      0                        
  SLIPNOT2         GAGE1            SALVNOT-I        4.973    90.0     746.0    1.0      0                        
  SNOTDOM1         GAGE1            SSHBNOT-I        9.207    55.0     1381.0   1.0      0                        
  SNOTDOM2         GAGE1            SNOTMYR-I        9.207    55.0     1381.0   1.0      0                        
  SNOTDOM3         GAGE1            SNOTWLL-I        9.207    55.0     1381.0   1.0      0                        
  SNOTSHB          GAGE1            SSHB54-I         11.66    59.0     1749.0   1.0      0                        
  CAUBPAL          GAGE1            CAUBPAL-I        3.84     55.0     576.0    1.0      0                        
  CAUBWOL          GAGE1            CAUBWOL-I        8.901    55.0     1335.0   1.0      0                        
  CAUBWSM          GAGE1            CAUBWSM-I        3.257    55.0     489.0    1.0      0                        
  CELCGRF          GAGE1            CELCGRF-I        16.63    55.0     2495.0   1.0      0                        
  CELCING          GAGE1            CELCING-I        6.301    55.0     945.0    1.0      0                        
  CLIPELC          GAGE1            CLIPELC-I        2.629    55.0     394.0    1.0      0                        
  CLIPSMT          GAGE1            CLIPSMT-I        9.295    56.0     1394.0   1.0      0                        
  CPORBAN          GAGE1            CPORBAN-I        12.14    55.0     1821.0   1.0      0                        
  CPORBUR          GAGE1            CPORBUR-I        21.86    69.0     3279.0   1.0      0                        
  CPORDOM          GAGE1            CPORDOM-I        11.12    65.0     1668.0   1.0      0                        
  CPORGRE          GAGE1            CPORGRE-I        16.95    55.0     2543.0   1.0      0                        
  CPORLIP          GAGE1            CPORLIP-I        5.912    58.0     887.0    1.0      0                        
  CPORSHB          GAGE1            CPORSHB-I        10.23    59.0     1535.0   1.0      0                        
  CPORSPR          GAGE1            CPORSPR-I        10.0     60.0     1500.0   1.0      0                        
  CPORWLL          GAGE1            CPORWLL-I        16.42    80.0     2463.0   1.0      0                        
  CSMTING          GAGE1            CSMTING-I        7.605    55.0     1141.0   1.0      0                        
  CSTMSHB          GAGE1            CSTMSHB-I        13.1     55.0     1965.0   1.0      0                        
  SAUBPAL          GAGE1            SRUBPAL-I        3.84     55.0     576.0    1.0      0                        
  SAUBWOL          GAGE1            SSHBPAL-I        8.901    55.0     1335.0   1.0      0                        
  SELCGRF1         GAGE1            SELCDOM-I        13.304   55.0     1996.0   1.0      0                        
  SELCGRF2         GAGE1            SSHBSAR-I        3.326    55.0     499.0    1.0      0                        
  SELCING          GAGE1            SSHBELC-I        6.301    55.0     945.0    1.0      0                        
  SLIPELC          GAGE1            SSHBELC-I        2.629    55.0     394.0    1.0      0                        
  SLIPSMT1         GAGE1            SSHBSTM-I        4.648    55.0     697.0    1.0      0                        
  SLIPSMT2         GAGE1            SBURELC-I        4.648    57.0     697.0    1.0      0                        
  SPORBAN1         GAGE1            SLENWSM-I        8.498    55.0     1275.0   1.0      0                        
  SPORBAN2         GAGE1            SBUREIN-I        3.642    55.0     546.0    1.0      0                        
  SPORBUR1         GAGE1            SLENWSM-I        5.465    55.0     820.0    1.0      0                        
  SPORBUR2         GAGE1            SBURPOR-I        5.465    83.0     820.0    1.0      0                        
  SPORBUR3         GAGE1            SBURSMT-I        5.465    69.0     820.0    1.0      0                        
  SPORBUR4         GAGE1            SBURELC-I        5.465    69.0     820.0    1.0      0                        
  SPORDOM1         GAGE1            SSHBPAL-I        2.78     55.0     417.0    1.0      0                        
  SPORDOM2         GAGE1            SSHBWSM-I        2.78     55.0     417.0    1.0      0                        
  SPORDOM3         GAGE1            SPORSHB-I        2.78     70.0     417.0    1.0      0                        
  SPORDOM4         GAGE1            SSHBWLV-I        2.78     80.0     417.0    1.0      0                        
  SPORGRE1         GAGE1            SSHBPAL-I        4.238    55.0     636.0    1.0      0                        
  SPORGRE2         GAGE1            SPORGRE-I        4.238    55.0     636.0    1.0      0                        
  SPORGRE3         GAGE1            SSHBWLV-I        4.238    55.0     636.0    1.0      0                        
  SPORGRE4         GAGE1            SSHBSTM-I        4.238    55.0     636.0    1.0      0                        
  SPORLIP1         GAGE1            SPORSHB-I        2.956    58.0     443.0    1.0      0                        
  SPORLIP2         GAGE1            SBURPOR-I        2.956    58.0     443.0    1.0      0                        
  SPORSHB1         GAGE1            SSHBWSM-I        3.41     55.0     512.0    1.0      0                        
  SPORSHB2         GAGE1            SPORSHB-I        3.41     67.0     512.0    1.0      0                        
  SPORSHB3         GAGE1            SSHBWLV-I        3.41     55.0     512.0    1.0      0                        
  SPORSPR1         GAGE1            SSHBWSM-I        3.333    55.0     500.0    1.0      0                        
  SPORSPR2         GAGE1            SPORSPR-I        3.333    70.018   500.0    1.0      0                        
  SPORSPR3         GAGE1            SSHBWLV-I        3.333    55.0     500.0    1.0      0                        
  SPORWLL1         GAGE1            SSHBWSM-I        5.473    50.0     821.0    1.0      0                        
  SPORWLL2         GAGE1            SPORWLL-I        5.473    95.0     821.0    1.0      0                        
  SPORWLL3         GAGE1            SSHBWLV-I        5.473    95.0     821.0    1.0      0                        
  SSMTING1         GAGE1            SSHBELC-I        5.324    55.0     799.0    1.0      0                        
  SSMTING2         GAGE1            SPORSHB-I        2.282    55.0     342.0    1.0      0                        
  SSTMSHB1         GAGE1            SSHBSTM-I        6.55     55.0     983.0    1.0      0                        
  SSTMSHB2         GAGE1            SSTMDOM-I        3.275    71.0     491.0    1.0      0                        
  SSTMSHB3         GAGE1            SSHBWLV-I        3.275    39.0     491.0    1.0      0                        
  CPORCAN          GAGE1            CPORCAN-I        7.166    69.0     1075.0   1.0      0                        
  CPORHOM          GAGE1            CPORHOM-I        9.797    62.0     1470.0   1.0      0                        
  CSIMSTM          GAGE1            CSIMSTM-I        12.66    55.0     1899.0   1.0      0                        
  CSIMELC          GAGE1            CSIMELC-I        14.85    55.0     2228.0   1.0      0                        
  CSIMSAR          GAGE1            CSIMSAR-I        6.617    59.0     993.0    1.0      0                        
  CSIMWEL          GAGE1            CSIMWEL-I        7.005    66.0     1051.0   1.0      0                        
  SPORCAN1         GAGE1            SSIMPOR-I        3.583    83.0     537.0    1.0      0                        
  SPORCAN2         GAGE1            SSIMSTM-I        3.583    55.0     537.0    1.0      0                        
  SPORHOM1         GAGE1            SBUREIN-I        4.899    62.0     735.0    1.0      0                        
  SPORHOM2         GAGE1            SSIMSTM-I        4.899    62.0     735.0    1.0      0                        
  SSIMSTM1         GAGE1            SSTMARL-I        6.33     55.0     950.0    1.0      0                        
  SSIMSTM2         GAGE1            SSIMSTM-I        6.33     55.0     950.0    1.0      0                        
  SSIMELC          GAGE1            SSIMELC-I        14.85    55.0     2228.0   1.0      0                        
  SSIMSAR          GAGE1            SSIMSAR-I        6.617    59.0     993.0    1.0      0                        
  SSIMWEL1         GAGE1            SWELMRY-I        3.5      66.0     1051.0   1.0      0                        
  SSIMWEL2         GAGE1            SWELVIC-I        3.505    66.0     1051.0   1.0      0                        
  CCORMID          GAGE1            CCORMID-I        16.8     40.0     2520.0   1.0      0                        
  CMRYCOR          GAGE1            CMRYCOR-I        4.125    59.0     619.0    1.0      0                        
  CMRYWSM          GAGE1            CMRYWSM-I        1.929    60.0     289.0    1.0      0                        
  CWALPUR          GAGE1            CWALPUR-I        3.471    55.0     521.0    1.0      0                        
  CWSMWAL          GAGE1            CWSMWAL-I        9.34     55.0     1401.0   1.0      0                        
  CWSMARL          GAGE1            CWSMARL-I        11.76    55.0     1764.0   1.0      0                        
  CWSMCAN          GAGE1            CWSMCAN-I        7.684    55.0     1153.0   1.0      0                        
  CWSMETH          GAGE1            CWSMETH-I        8.611    55.0     1292.0   1.0      0                        
  CCANPRE          GAGE1            CCANPRE-I        6.685    33.0     1003.0   1.0      0                        
  SCORMID          GAGE1            SCANWOL-I        16.8     40.0     2520.0   1.0      0                        
  SMRYCOR          GAGE1            SCANWOL-I        4.125    59.0     619.0    1.0      0                        
  SMRYWSM          GAGE1            SCANWSM-I        1.929    60.0     289.0    1.0      0                        
  SWALPUR          GAGE1            SCANPRE-I        3.471    55.0     521.0    1.0      0                        
  SWSMWAL1         GAGE1            SCANWOL-I        4.67     55.0     701.0    1.0      0                        
  SWSMWAL2         GAGE1            SCANWSM-I        4.67     55.0     701.0    1.0      0                        
  SWSMARL1         GAGE1            SWOLHOM-I        5.88     55.0     882.0    1.0      0                        
  SWSMARL2         GAGE1            SWSMARL-I        5.88     55.0     882.0    1.0      0                        
  SWSMCAN1         GAGE1            SCANWOL-I        3.842    55.0     576.0    1.0      0                        
  SWSMCAN2         GAGE1            SCANWSM-I        3.842    55.0     576.0    1.0      0                        
  SWSMETH1         GAGE1            SWOLHOM-I        4.306    55.0     646.0    1.0      0                        
  SWSMETH2         GAGE1            SWSMHOM-I        4.306    55.0     646.0    1.0      0                        
  SCANPRE          GAGE1            SCANPRE-I        6.685    33.0     1003.0   1.0      0                        

[SUBAREAS]
;;Subcatchment     N-Imperv   N-Perv     S-Imperv   S-Perv     PctZero    RouteTo    PctRouted
;;--------------------------------------------------------------------------------------------
  CMCPWIN          0.015      0.25       2          5          25         OUTLET    
  CMCPBAN          0.015      0.25       2          5          25         OUTLET    
  CMCPELG          0.015      0.25       2          5          25         OUTLET    
  CMCPPAC          0.015      0.25       2          5          25         OUTLET    
  CPAC72           0.015      0.25       2          5          25         OUTLET    
  CPAC75           0.015      0.25       2          5          25         OUTLET    
  CALEXAN          0.015      0.25       2          5          25         OUTLET    
  CLOG80           0.015      0.25       2          5          25         OUTLET    
  CHEN90           0.015      0.25       2          5          25         OUTLET    
  CHIGMAU          0.015      0.25       2          5          25         OUTLET    
  CHEN90-R         0.015      0.25       2          5          25         OUTLET    
  CHIGMAU-R        0.015      0.25       2          5          25         OUTLET    
  CMCPLOG          0.015      0.25       2          5          25         OUTLET    
  CLOGYEO          0.015      0.25       2          5          25         OUTLET    
  CLOGYEO-R        0.015      0.25       2          5          25         OUTLET    
  CLOGWNK          0.015      0.25       2          5          25         OUTLET    
  CLOGCEC-R        0.015      0.25       2          5          25         OUTLET    
  CLOGQUE-R        0.015      0.25       2          5          25         OUTLET    
  CLOGVIN-R        0.015      0.25       2          5          25         OUTLET    
  CLOGWNK-R        0.015      0.25       2          5          25         OUTLET    
  CLOGELE          0.015      0.25       2          5          25         OUTLET    
  CLOGVIN          0.015      0.25       2          5          25         OUTLET    
  CLOGQUE          0.015      0.25       2          5          25         OUTLET    
  CLOGCEC          0.015      0.25       2          5          25         OUTLET    
  CCECROY          0.015      0.25       2          5          25         OUTLET    
  SMCPWIN1         0.015      0.25       2          5          25         OUTLET    
  SMCPWIN2         0.015      0.25       2          5          25         OUTLET    
  SMCPBAN          0.015      0.25       2          5          25         OUTLET    
  SMCPELG          0.015      0.25       2          5          25         OUTLET    
  SMCPPAC          0.015      0.25       2          5          25         OUTLET    
  SPAC72           0.015      0.25       2          5          25         OUTLET    
  SPAC75           0.015      0.25       2          5          25         OUTLET    
  SXANALE          0.015      0.25       2          5          25         OUTLET    
  SLOG80           0.015      0.25       2          5          25         OUTLET    
  SHEN90           0.015      0.25       2          5          25         OUTLET    
  SHIGMAU          0.015      0.25       2          5          25         OUTLET    
  SHEN90-R         0.015      0.25       2          5          25         OUTLET    
  SHIGMAU-R        0.015      0.25       2          5          25         OUTLET    
  SMCPLOG          0.015      0.25       2          5          25         OUTLET    
  SLOGYEO          0.015      0.25       2          5          25         OUTLET    
  SLOGYEO-R        0.015      0.25       2          5          25         OUTLET    
  SLOGWNK          0.015      0.25       2          5          25         OUTLET    
  SLOGCEC-R        0.015      0.25       2          5          25         OUTLET    
  SLOGQUE-R        0.015      0.25       2          5          25         OUTLET    
  SLOGVIN-R        0.015      0.25       2          5          25         OUTLET    
  SLOGWNK-R        0.015      0.25       2          5          25         OUTLET    
  SLOGELE          0.015      0.25       2          5          25         OUTLET    
  SLOGVIN          0.015      0.25       2          5          25         OUTLET    
  SLOGQUE          0.015      0.25       2          5          25         OUTLET    
  SLOGCEC          0.015      0.25       2          5          25         OUTLET    
  SCECROY          0.015      0.25       2          5          25         OUTLET    
  CLIPSAR          0.015      0.25       2          5          25         OUTLET    
  CSARBUR          0.015      0.25       2          5          25         OUTLET    
  CSARARL          0.015      0.25       2          5          25         OUTLET    
  CLIPWEL          0.015      0.25       2          5          25         OUTLET    
  CWELSHB          0.015      0.25       2          5          25         OUTLET    
  CWELDOM          0.015      0.25       2          5          25         OUTLET    
  CLIPNOT          0.015      0.25       2          5          25         OUTLET    
  CNOTDOM          0.015      0.25       2          5          25         OUTLET    
  CNOTSHB          0.015      0.25       2          5          25         OUTLET    
  SLIPSAR          0.015      0.25       2          5          25         OUTLET    
  SSARBUR          0.015      0.25       2          5          25         OUTLET    
  SSARARL1         0.015      0.25       2          5          25         OUTLET    
  SSARARL2         0.015      0.25       2          5          25         OUTLET    
  SSARARL3         0.015      0.25       2          5          25         OUTLET    
  SLIPWEL1         0.015      0.25       2          5          25         OUTLET    
  SLIPWEL2         0.015      0.25       2          5          25         OUTLET    
  SWELSHB          0.015      0.25       2          5          25         OUTLET    
  SWELDOM          0.015      0.25       2          5          25         OUTLET    
  SLIPNOT1         0.015      0.25       2          5          25         OUTLET    
  SLIPNOT2         0.015      0.25       2          5          25         OUTLET    
  SNOTDOM1         0.015      0.25       2          5          25         OUTLET    
  SNOTDOM2         0.015      0.25       2          5          25         OUTLET    
  SNOTDOM3         0.015      0.25       2          5          25         OUTLET    
  SNOTSHB          0.015      0.25       2          5          25         OUTLET    
  CAUBPAL          0.015      0.25       2          5          25         OUTLET    
  CAUBWOL          0.015      0.25       2          5          25         OUTLET    
  CAUBWSM          0.015      0.25       2          5          25         OUTLET    
  CELCGRF          0.015      0.25       2          5          25         OUTLET    
  CELCING          0.015      0.25       2          5          25         OUTLET    
  CLIPELC          0.015      0.25       2          5          25         OUTLET    
  CLIPSMT          0.015      0.25       2          5          25         OUTLET    
  CPORBAN          0.015      0.25       2          5          25         OUTLET    
  CPORBUR          0.015      0.25       2          5          25         OUTLET    
  CPORDOM          0.015      0.25       2          5          25         OUTLET    
  CPORGRE          0.015      0.25       2          5          25         OUTLET    
  CPORLIP          0.015      0.25       2          5          25         OUTLET    
  CPORSHB          0.015      0.25       2          5          25         OUTLET    
  CPORSPR          0.015      0.25       2          5          25         OUTLET    
  CPORWLL          0.015      0.25       2          5          25         OUTLET    
  CSMTING          0.015      0.25       2          5          25         OUTLET    
  CSTMSHB          0.015      0.25       2          5          25         OUTLET    
  SAUBPAL          0.015      0.25       2          5          25         OUTLET    
  SAUBWOL          0.015      0.25       2          5          25         OUTLET    
  SELCGRF1         0.015      0.25       2          5          25         OUTLET    
  SELCGRF2         0.015      0.25       2          5          25         OUTLET    
  SELCING          0.015      0.25       2          5          25         OUTLET    
  SLIPELC          0.015      0.25       2          5          25         OUTLET    
  SLIPSMT1         0.015      0.25       2          5          25         OUTLET    
  SLIPSMT2         0.015      0.25       2          5          25         OUTLET    
  SPORBAN1         0.015      0.25       2          5          25         OUTLET    
  SPORBAN2         0.015      0.25       2          5          25         OUTLET    
  SPORBUR1         0.015      0.25       2          5          25         OUTLET    
  SPORBUR2         0.015      0.25       2          5          25         OUTLET    
  SPORBUR3         0.015      0.25       2          5          25         OUTLET    