[TITLE]
EXAMPLE USER2

[OPTIONS]
 FLOW_UNITS            CFS
 INFILTRATION          HORTON
 FLOW_ROUTING          DYNWAVE
 START_DATE            01/01/2002
 START_TIME            00:00:00
 REPORT_START_DATE     01/01/2002
 REPORT_START_TIME     00:00:00
 END_DATE              01/02/2002
 END_TIME              12:00:00
 SWEEP_START           01/01
 SWEEP_END             12/31
 DRY_DAYS              0
 REPORT_STEP           00:05:00
 WET_STEP              00:01:00
 DRY_STEP              02:00:00
 ROUTING_STEP          0:00:05 
 ALLOW_PONDING         NO
 INERTIAL_DAMPING      NONE
 VARIABLE_STEP         0.00
 LENGTHENING_STEP      0
 MIN_SURFAREA          12.0
 NORMAL_FLOW_LIMITED   BOTH
 SKIP_STEADY_STATE     NO
 THREADS               1
 
[EVAPORATION]
;;Type         Parameters
;;-----------------------
  MONTHLY      0.01   0.04   0.05   0.05   0.1    0.24   0.25   0.24   0.16   0.11   0.03   0.01  

[RAINGAGES]
;;                 Rain      Recd.  Snow   Data       Source           Station    Rain 
;;Name             Type      Freq.  Catch  Source     Name             ID         Units
;;-------------------------------------------------------------------------------------
  GAGE1            INTENSITY 0.25000 1.0    TIMESERIES RainSeries1     

[SUBCATCHMENTS]
;;                                                   Total    Pcnt.             Pcnt.    Curb     Snow
;;Name             Raingage         Outlet           Area     Imperv   Width    Slope    Length   Pack
;;----------------------------------------------------------------------------------------------------
  SubCatchTW01060  GAGE1            TW01060          175.61   3.4      5604.0   4.21     0                        
  SubCatchTW01100  GAGE1            TW01100          196.36   11.5     6929.0   4.12     0                        
  SubCatchTW01160  GAGE1            TW01160          46.56    3.4      2839.0   3.1      0                        
  SubCatchTW01200  GAGE1            TW01200          205.84   47.3     6680.0   1.6      0                        
  SubCatchTW01340  GAGE1            TW01340          367.94   45.4     16508.0  1.15     0                        
  SubCatchTW01390  GAGE1            TW01390          136.26   65.3     4597.0   1.0      0                        
  TW02010A         GAGE1            TW02010          160.01   33.5     5353.0   2.42     0                        
  TW02010B         GAGE1            TW01140          50.0     33.5     5353.0   2.42     0                        
  SubCatchTW03010  GAGE1            TW03010          81.48    40.3     2003.0   1.89     0                        
  SubCatchTW04050  GAGE1            TW04050          117.97   21.1     7026.0   2.22     0                        
  SubCatchTW04120  GAGE1            TW04120          134.6    40.0     4549.0   0.98     0                        
  SubCatchTW05010  GAGE1            TW05010          82.62    30.5     3698.0   1.12     0                        
  SubCatchTW06010  GAGE1            TW06010          89.36    27.7     2621.0   1.1      0                        
  SubCatchTW07030  GAGE1            TW07030          47.28    55.2     3895.0   1.31     0                        
  SubCatchTW07090  GAGE1            TW07090          105.43   53.8     1386.0   0.9      0                        
  SubCatchTW08010  GAGE1            TW08010          119.51   30.3     4232.0   0.99     0                        
  SubCatchTW09010  GAGE1            TW09010          138.13   49.1     9638.0   0.76     0                        

[SUBAREAS]
;;Subcatchment     N-Imperv   N-Perv     S-Imperv   S-Perv     PctZero    RouteTo    PctRouted
;;--------------------------------------------------------------------------------------------
  SubCatchTW01060  0.025      0.25       0.06       0.2        25         OUTLET    
  SubCatchTW01100  0.025      0.25       0.06       0.2        25         OUTLET    
  SubCatchTW01160  0.025      0.25       0.06       0.2        25         OUTLET    
  SubCatchTW01200  0.025      0.25       0.06       0.2        25         OUTLET    
  SubCatchTW01340  0.025      0.25       0.06       0.2        25         OUTLET    
  SubCatchTW01390  0.025      0.25       0.06       0.2        25         OUTLET    
  TW02010A         0.025      0.25       0.06       0.2        25         OUTLET    
  TW02010B         0.025      0.25       0.06       0.2        25         OUTLET    
  SubCatchTW03010  0.025      0.25       0.06       0.2        25         OUTLET    
  SubCatchTW04050  0.025      0.25       0.06       0.2        25         OUTLET    
  SubCatchTW04120  0.025      0.25       0.06       0.2        25         OUTLET    
  SubCatchTW05010  0.025      0.25       0.06       0.2        25         OUTLET    
  SubCatchTW06010  0.025      0.25       0.06       0.2        25         OUTLET    
  SubCatchTW07030  0.025      0.25       0.06       0.2        25         OUTLET    
  SubCatchTW07090  0.025      0.25       0.06       0.2        25         OUTLET    
  SubCatchTW08010  0.025      0.25       0.06       0.2        25         OUTLET    
  SubCatchTW09010  0.025      0.25       0.06       0.2        25         OUTLET    

[INFILTRATION]
;;Subcatchment     MaxRate    MinRate    Decay      DryTime    MaxInfil  
;;-----------------------------------------------------------------------
  SubCatchTW01060  2.03       0.11       2.0016     0.04163    3.51      
  SubCatchTW01100  1.42       0.07       2.0016     0.04163    2.53      
  SubCatchTW01160  1.6        0.08       2.0016     0.04163    3.06      
  SubCatchTW01200  1.28       0.06       2.0016     0.04163    1.7       
  SubCatchTW01340  1.37       0.07       2.0016     0.04163    1.61      
  SubCatchTW01390  1.05       0.05       2.0016     0.04163    0.88      
  TW02010A         1.08       0.05       2.0016     0.04163    1.57      
  TW02010B         1.08       0.05       2.0016     0.04163    1.57      
  SubCatchTW03010  1.17       0.06       2.0016     0.04163    1.61      
  SubCatchTW04050  1.44       0.07       2.0016     0.04163    2.14      
  SubCatchTW04120  1.21       0.06       2.0016     0.04163    1.45      
  SubCatchTW05010  1.24       0.06       2.0016     0.04163    1.72      
  SubCatchTW06010  1.26       0.06       2.0016     0.04163    1.77      
  SubCatchTW07030  1.36       0.07       2.0016     0.04163    1.61      
  SubCatchTW07090  1.3        0.06       2.0016     0.04163    1.55      
  SubCatchTW08010  1.56       0.08       2.0016     0.04163    1.89      
  SubCatchTW09010  1.27       0.06       2.0016     0.04163    1.74      

[JUNCTIONS]
;;                 Invert     Max.       Init.      Surcharge  Ponded    
;;Name             Elev.      Depth      Depth      Depth      Area      
;;------------------------------------------------------------------------
  TW01020          661.10     98.90      .00        0          0         
  TW01040          686.80     99.20      .00        0          0         
  TW01050          709.00     99.00      .00        0          0         
  TW01060          724.00     99.00      .00        0          0         
  TW01070          745.00     99.00      .00        0          0         
  TW01080          772.90     99.10      .00        0          0         
  TW01090          792.50     99.50      .00        0          0         
  TW01100          793.00     99.00      .00        0          0         
  TW01110          819.40     98.60      .00        0          0         
  TW01120          832.00     99.00      .00        0          0         
  TW01130          838.00     99.00      .00        0          0         
  TW01140          839.40     98.60      .00        0          0         
  TW01150          843.90     99.10      .00        0          0         
  TW01160          853.20     98.80      .00        0          0         
  TW01170          862.00     99.00      .00        0          0         
  TW01180          871.60     99.40      .00        0          0         
  TW01210          881.00     99.00      1.40       0          0         
  TW01250          888.00     99.00      .00        0          0         
  TW01260          889.00     99.00      .00        0          0         
  TW01270          889.30     98.70      .00        0          0         
  TW01280          889.50     99.50      .00        0          0         
  TW01290          897.60     99.40      .00        0          0         
  TW01300          898.80     99.20      .00        0          0         
  TW01310          899.00     99.00      .00        0          0         
  TW01320          908.00     99.00      .00        0          0         
  TW01330          908.50     99.50      .00        0          0         
  TW01340          911.50     99.50      .00        0          0         
  TW02005          916.00     99.00      .00        0          0         
  TW03010          906.00     99.00      .00        0          0         
  TW04010          875.00     99.00      .00        0          0         
  TW04020          878.00     99.00      .00        0          0         
  TW04030          893.80     99.20      .00        0          0         
  TW04040          907.00     99.00      .00        0          0         
  TW04050          912.00     99.00      .00        0          0         
  TW04060          914.00     99.00      .00        0          0         
  TW04070          927.40     98.60      .00        0          0         
  TW04080          933.00     99.00      .00        0          0         
  TW04090          943.00     99.00      .00        0          0         
  TW04110          960.00     99.00      .00        0          0         
  TW04120          979.40     98.60      .00        0          0         
  TW07010          889.50     99.50      .00        0          0         
  TW07020          904.00     99.00      .00        0          0         
  TW07030          919.00     99.00      .00        0          0         

[OUTFALLS]
;;                 Invert     Outfall    Stage/Table      Tide
;;Name             Elev.      Type       Time Series      Gate
;;------------------------------------------------------------
  TW01010          660.1      FIXED      661 NO

[STORAGE]
;;                 Invert   Max.     Init.    Shape      Shape                      Ponded   Evap.
;;Name             Elev.    Depth    Depth    Curve      Parameters                 Area     Frac.
;;------------------------------------------------------------------------------------------------
  TW01190          880.0    99.0     0.0      TABULAR    TW01190                    0        0       
  TW01355          950.0    99.0     0.0      TABULAR    TW01355                    0        0       
  TW01357          955.0    99.0     0.0      TABULAR    TW01357                    0        0       
  TW01200          882.4    98.6     0.0      TABULAR    TW01200                    0        0       
  TW01220          881.2    98.8     1.2      TABULAR    TW01220                    0        0       
  TW01230          880.0    99.0     2.4      TABULAR    TW01230                    0        0       
  TW01240          880.2    98.8     2.2      TABULAR    TW01240                    0        0       
  TW01350          949.8    99.2     0.0      TABULAR    TW01350                    0        0       
  TW01360          965.0    99.0     0.0      TABULAR    TW01360                    0        0       
  TW01370          976.0    99.0     0.0      TABULAR    TW01370                    0        0       
  TW01380          987.0    99.0     0.0      TABULAR    TW01380                    0        0       
  TW01385          999.0    99.0     0.0      TABULAR    TW01385                    0        0       
  TW01390          1014.0   99.0     0.0      TABULAR    TW01390                    0        0       
  TW02010          935.0    99.0     0.0      TABULAR    TW02010                    0        0       
  TW04065          916.0    99.0     0.0      TABULAR    TW04065                    0        0       
  TW04100          954.5    99.5     0.0      TABULAR    TW04100                    0        0       
  TW05010          942.0    99.0     0.0      TABULAR    TW05010                    0        0       
  TW06005          944.0    99.0     0.0      TABULAR    TW06005                    0        0       
  TW06010          988.0    99.0     0.0      TABULAR    TW06010                    0        0       
  TW07040          933.0    99.0     0.0      TABULAR    TW07040                    0        0       
  TW07050          966.0    99.0     0.0      TABULAR    TW07050                    0        0       
  TW07060          980.0    99.0     0.0      TABULAR    TW07060                    0        0       
  TW07070          981.5    99.5     0.0      TABULAR    TW07070                    0        0       
  TW07080          988.0    99.0     0.0      TABULAR    TW07080                    0        0       
  TW07090          997.0    99.0     0.0      TABULAR    TW07090                    0        0       
  TW08005          932.0    99.0     0.0      TABULAR    TW08005                    0        0       
  TW08010          946.5    99.5     0.0      TABULAR    TW08010                    0        0       
  TW09010          986.0    99.0     0.0      TABULAR    TW09010                    0        0       

[CONDUITS]
;;                 Inlet            Outlet                      Manning    Inlet      Outlet     Init.      Maximum
;;Name             Node             Node             Length     N          Height     Height     Flow       Flow
;;------------------------------------------------------------------------------------------------------------------------
  TW01130          TW01130          TW01120          267.0      0.015      0.0        3.6        0.0        0         
  TW01200          TW01200          TW01190          249.0      0.015      0.0        0.0        0.0        0         
  TW01220          TW01220          TW01210          68.0       0.024      0.0        0.0        0.0        0         
  TW01240          TW01240          TW01230          35.0       0.024      0.0        0.0        0.0        0         
  TW01260          TW01260          TW01250          47.0       0.024      0.0        0.0        0.0        0         
  TW01280          TW01280          TW01270          216.0      0.015      0.0        0.0        0.0        0         
  TW01310          TW01310          TW01300          79.0       0.024      0.0        0.0        0.0        0         
  TW01330          TW01330          TW01320          40.0       0.015      0.0        0.0        0.0        0         
  TW01331          TW01330          TW01320          40.0       0.015      2.8        2.8        0.0        0         
  TW01350          TW01350          TW01340          1600.0     0.024      0.0        0.0        0.0        0         
  TW01355          TW01355          TW01350          25.0       0.013      0.0        0.0        0.0        0         
  TW01357          TW01357          TW01355          1100.0     0.013      0.0        0.0        0.0        0         
  TW01360          TW01360          TW01357          400.0      0.013      0.0        0.0        0.0        0         
  TW01370          TW01370          TW01357          600.0      0.013      0.0        0.0        0.0        0         
  TW01380          TW01380          TW01370          1200.0     0.013      0.0        0.0        0.0        0         
  TW01385          TW01385          TW01380          900.0      0.013      0.0        0.0        0.0        0         
  TW01390          TW01390          TW01385          1000.0     0.013      0.0        0.0        0.0        0         
  TW02010          TW02010          TW02005          2100.0     0.013      0.0        0.0        0.0        0         
  TW04020          TW04020          TW04010          140.0      0.015      0.0        2.8        0.0        0         
  TW04050          TW04050          TW04040          196.0      0.024      0.0        2.0        0.0        0         
  TW04065          TW04065          TW04060          200.0      0.015      0.0        0.0        0.0        0         
  TW04070          TW04070          TW04065          794.0      0.013      0.0        0.0        0.0        0         
  TW04071          TW04070          TW04065          794.0      0.013      0.0        0.0        0.0        0         
  TW04100          TW04100          TW04090          930.0      0.013      0.0        0.0        0.0        0         
  TW04110          TW04110          TW04100          398.0      0.013      0.0        0.0        0.0        0         
  TW05010          TW05010          TW04080          470.0      0.013      0.0        0.0        0.0        0         
  TW06005          TW06005          TW04090          150.0      0.013      0.0        0.0        0.0        0         
  TW06010          TW06010          TW06005          1812.0     0.013      0.0        0.0        0.0        0         
  TW07010          TW07010          TW01250          70.0       0.015      0.0        1.0        0.0        0         
  TW07040          TW07040          TW07030          100.0      0.013      0.0        0.0        0.0        0         
  TW07050          TW07050          TW07040          1900.0     0.013      0.0        0.0        0.0        0         
  TW07060          TW07060          TW07050          1100.0     0.013      0.0        0.0        0.0        0         
  TW07070          TW07070          TW07060          250.0      0.013      0.0        0.0        0.0        0         
  TW07080          TW07080          TW07070          770.0      0.013      0.0        0.0        0.0        0         
  TW07090          TW07090          TW07080          780.0      0.013      0.0        0.0        0.0        0         
  TW08010          TW08010          TW08005          750.0      0.013      0.0        0.0        0.0        0         
  TW08011          TW08010          TW08005          750.0      0.013      0.0        0.0        0.0        0         
  TW08012          TW08010          TW08005          750.0      0.013      0.0        0.0        0.0        0         
  TW09010          TW09010          TW01360          1400.0     0.013      0.0        0.0        0.0        0         
  TW09011          TW09010          TW01360          1400.0     0.013      0.0        0.0        0.0        0         
  TW01020          TW01020          TW01010          135.0      0.0        0.0        0.0        0.0        0         
  TW01040          TW01040          TW01020          1401.0     0.0        0.0        0.0        0.0        0         
  TW01050          TW01050          TW01040          1449.0     0.0        0.0        0.0        0.0        0         
  TW01060          TW01060          TW01050          1097.0     0.0        0.0        0.0        0.0        0         
  TW01070          TW01070          TW01060          1167.0     0.0        0.0        0.0        0.0        0         
  TW01080          TW01080          TW01070          1182.0     0.0        0.0        0.0        0.0        0         
  TW01090          TW01090          TW01080          1547.0     0.0        0.0        0.0        0.0        0         
  TW01100          TW01100          TW01090          21.0       0.0        0.0        0.0        0.0        0         
  TW01110          TW01110          TW01100          1280.0     0.0        0.0        0.0        0.0        0         
  TW01120          TW01120          TW01110          881.0      0.0        0.0        0.0        0.0        0         
  TW01140          TW01140          TW01130          178.0      0.0        0.0        0.0        0.0        0         
  TW01150          TW01150          TW01140          635.0      0.0        0.0        0.0        0.0        0         
  TW01160          TW01160          TW01150          1246.0     0.0        0.0        0.0        0.0        0         
  TW01170          TW01170          TW01160          1044.0     0.0        0.0        0.0        0.0        0         
  TW01180          TW01180          TW01170          981.0      0.0        0.0        0.0        0.0        0         
  TW01190          TW01190          TW01180          614.0      0.0        0.0        0.0        0.0        0         
  TW01210          TW01210          TW01200          403.0      0.0        0.0        0.0        0.0        0         
  TW01230          TW01230          TW01220          238.0      0.0        0.0        0.0        0.0        0         
  TW01250          TW01250          TW01240          303.0      0.0        0.0        0.0        0.0        0         
  TW01270          TW01270          TW01260          168.0      0.0        0.0        0.0        0.0        0         
  TW01290          TW01290          TW01280          544.0      0.0        0.0        0.0        0.0        0         
  TW01300          TW01300          TW01290          330.0      0.0        0.0        0.0        0.0        0         
  TW01320          TW01320          TW01310          605.0      0.0        0.0        0.0        0.0        0         
  TW01340          TW01340          TW01330          1007.0     0.0        0.0        0.0        0.0        0         
  TW02005          TW02005          TW01140          1100.0     0.0        0.0        0.0        0.0        0         
  TW03010          TW03010          TW01150          1400.0     0.0        0.0        0.0        0.0        0         
  TW04010          TW04010          TW01170          963.0      0.0        0.0        0.0        0.0        0         
  TW04030          TW04030          TW04020          948.0      0.0        0.0        0.0        0.0        0         
  TW04040          TW04040          TW04030          657.0      0.0        0.0        0.0        0.0        0         
  TW04060          TW04060          TW04050          353.0      0.0        0.0        0.0        0.0        0         
  TW04080          TW04080          TW04070          606.0      0.0        0.0        0.0        0.0        0         
  TW04090          TW04090          TW04080          561.0      0.0        0.0        0.0        0.0        0         
  TW04120          TW04120          TW04110          975.0      0.0        0.0        0.0        0.0        0         
  TW07020          TW07020          TW07010          943.0      0.0        0.0        0.0        0.0        0         
  TW07030          TW07030          TW07020          987.0      0.0        0.0        0.0        0.0        0         
  TW08005          TW08005          TW07030          1100.0     0.0        0.0        0.0        0.0        0         
  TW01221          TW01220          TW01210          68.0       0.0        20.3       20.3       0.0        0         
  TW01241          TW01240          TW01230          35.0       0.0        17.8       17.8       0.0        0         
  TW01261          TW01260          TW01250          47.0       0.0        15.0       15.8       0.0        0         
  TW01281          TW01280          TW01270          216.0      0.0        23.0       23.0       0.0        0         
  TW01311          TW01310          TW01300          79.0       0.0        11.0       11.0       0.0        0         
  TW01332          TW01330          TW01320          40.0       0.0        9.0        9.3        0.0        0         
  TW04066          TW04065          TW04060          200.0      0.0        11.5       13.3       0.0        0         

[WEIRS]
;;                 Inlet            Outlet                        Crest      Disch.     Flap End        End
;;Name             Node             Node             Type         Height     Coeff.     Gate Coeff.     Con.
;;---------------------------------------------------------------------------------------------------------
  WEIR1@TW01355-TW01350 TW01355          TW01350          TRANSVERSE   18.0       2.8        NO   0          0       
  WEIR2@TW01360-TW01357 TW01360          TW01357          TRANSVERSE   10.0       2.8        NO   0          0       
  WEIR3@TW01370-TW01357 TW01370          TW01357          TRANSVERSE   10.0       2.8        NO   0          0       
  WEIR4@TW01380-TW01370 TW01380          TW01370          TRANSVERSE   20.0       3.1        NO   0          0       
  WEIR5@TW01385-TW01380 TW01385          TW01380          TRANSVERSE   18.0       3.1        NO   0          0       
  WEIR6@TW01390-TW01385 TW01390          TW01385          TRANSVERSE   19.0       3.1        NO   0          0       
  WEIR7@TW02010-TW02005 TW02010          TW02005          TRANSVERSE   7.5        3.1        NO   0          0       
  WEIR8@TW04100-TW04090 TW04100          TW04090          TRANSVERSE   8.0        3.1        NO   0          0       
  WEIR9@TW05010-TW04080 TW05010          TW04080          TRANSVERSE   10.0       2.8        NO   0          0       
  WEIR10@TW06010-TW06005 TW06010          TW06005          TRANSVERSE   10.0       3.1        NO   0          0       
  WEIR11@TW07010-TW01250 TW07010          TW01250          TRANSVERSE   19.5       3.1        NO   0          0       
  WEIR12@TW07040-TW07010 TW07040          TW07010          TRANSVERSE   10.0       3.1        NO   0          0       
  WEIR13@TW07050-TW07040 TW07050          TW07040          TRANSVERSE   10.0       3.1        NO   0          0       
  WEIR14@TW07060-TW07050 TW07060          TW07050          TRANSVERSE   10.0       3.1        NO   0          0       
  WEIR15@TW07070-TW07060 TW07070          TW07060          TRANSVERSE   10.0       3.1        NO   0          0       
  WEIR16@TW07080-TW07070 TW07080          TW07070          TRANSVERSE   10.0       3.1        NO   0          0       
  WEIR17@TW07090-TW07080 TW07090          TW07080          TRANSVERSE   10.0       3.1        NO   0          0       
  WEIR18@TW08010-TW08005 TW08010          TW08005          TRANSVERSE   10.0       3.1        NO   0          0       
  WEIR19@TW09010-TW01360 TW09010          TW01360          TRANSVERSE   8.5        3.1        NO   0          0       

[XSECTIONS]
;;Link             Type         Geom1      Geom2      Geom3      Geom4      Barrels
;;---------------------------------------------------------------------------------
  TW01130          RECT_CLOSED  7.5        21.0       0.0        0.0        1         
  TW01200          RECT_CLOSED  7.5        7.4        0.0        0.0        1         
  TW01220          CIRCULAR     8.0        0.0        0          0          1         
  TW01240          CIRCULAR     9.0        0.0        0          0          1         
  TW01260          CIRCULAR     8.0        0.0        0          0          1         
  TW01280          CIRCULAR     9.0        0.0        0          0          1         
  TW01310          ARCH         58.0       0.0        0.0        0.0        1         
  TW01330          HORIZ_ELLIPSE 17.0       0          0          0          1         
  TW01331          RECT_CLOSED  4.0        4.0        0.0        0.0        1         
  TW01350          CIRCULAR     5.0        0.0        0          0          1         
  TW01355          CIRCULAR     1.5        0.0        0          0          1         
  TW01357          CIRCULAR     6.5        0.0        0          0          1         
  TW01360          CIRCULAR     4.5        0.0        0          0          1         
  TW01370          CIRCULAR     4.5        0.0        0          0          1         
  TW01380          CIRCULAR     4.5        0.0        0          0          1         
  TW01385          CIRCULAR     4.0        0.0        0          0          1         
  TW01390          CIRCULAR     3.5        0.0        0          0          1         
  TW02010          CIRCULAR     3.0        0.0        0          0          1         
  TW04020          CIRCULAR     8.0        0.0        0          0          1         
  TW04050          CIRCULAR     6.5        0.0        0          0          1         
  TW04065          RECT_CLOSED  5.0        7.0        0.0        0.0        1         
  TW04070          CIRCULAR     4.5        0.0        0          0          1         
  TW04071          CIRCULAR     4.5        0.0        0          0          1         
  TW04100          CIRCULAR     4.0        0.0        0          0          1         
  TW04110          HORIZ_ELLIPSE 9.0        0          0          0          1         
  TW05010          CIRCULAR     3.0        0.0        0          0          1         
  TW06005          HORIZ_ELLIPSE 11.0       0.0        0.0        0.0        1         
  TW06010          CIRCULAR     4.0        0.0        0          0          1         
  TW07010          CIRCULAR     6.0        0.0        0          0          1         
  TW07040          CIRCULAR     4.5        0.0        0          0          1         
  TW07050          CIRCULAR     4.5        0.0        0          0          1         
  TW07060          CIRCULAR     4.0        0.0        0          0          1         
  TW07070          CIRCULAR     3.0        0.0        0          0          1         
  TW07080          CIRCULAR     3.0        0.0        0          0          1         
  TW07090          CIRCULAR     3.0        0.0        0          0          1         
  TW08010          HORIZ_ELLIPSE 10.0       0.0        0.0        0.0        1         
  TW08011          CIRCULAR     2.5        0.0        0          0          1         
  TW08012          CIRCULAR     2.0        0.0        0          0          1         
  TW09010          CIRCULAR     3.5        0.0        0          0          1         
  TW09011          CIRCULAR     3.5        0.0        0          0          1         