[TITLE]
Example User5

[OPTIONS]
 FLOW_UNITS            CFS
 INFILTRATION          HORTON
 FLOW_ROUTING          DYNWAVE
 START_DATE            08/11/1998
 START_TIME            00:00:00
 REPORT_START_DATE     08/11/1998
 REPORT_START_TIME     00:00:00
 END_DATE              08/11/1998
 END_TIME              04:00:00
 SWEEP_START           01/01
 SWEEP_END             12/31
 DRY_DAYS              0
 REPORT_STEP           00:01:00
 WET_STEP              00:02:30
 DRY_STEP              00:10:00
 ROUTING_STEP          0.5
 ALLOW_PONDING         NO
 INERTIAL_DAMPING      NONE
 VARIABLE_STEP         0.00
 LENGTHENING_STEP      0
 MIN_SURFAREA          0
 NORMAL_FLOW_LIMITED   BOTH
 SKIP_STEADY_STATE     NO
 THREADS               1
 
[EVAPORATION]
;;Type         Parameters
;;-----------------------
  CONSTANT     0.1     

[RAINGAGES]
;;                 Rain      Recd.  Snow   Data       Source           Station    Rain 
;;Name             Type      Freq.  Catch  Source     Name             ID         Units
;;-------------------------------------------------------------------------------------
  GAGE1            VOLUME    0.05000 1.0    TIMESERIES RainSeries1     

[SUBCATCHMENTS]
;;                                                   Total    Pcnt.             Pcnt.    Curb     Snow
;;Name             Raingage         Outlet           Area     Imperv   Width    Slope    Length   Pack
;;----------------------------------------------------------------------------------------------------
  1SB5#1           GAGE1            1SB5             5.34     44.4     125.0    0.71651  0                        
  2SB5#1           GAGE1            2SB5             3.44     46.5     75.0     0.40041  0                        
  1SB23#1          GAGE1            1SB23            7.7      47.9     125.0    0.79504  0                        
  2SB23#1          GAGE1            2SB23            6.45     33.9     150.0    1.06776  0                        
  4SB23#1          GAGE1            4SB23            4.09     44.8     100.0    0.29936  0                        
  3SB23#1          GAGE1            3SB23            5.89     40.6     200.0    0.41574  0                        
  49SB1#1          GAGE1            49SB1            13.0     16.4     250.0    1.11841  0                        
  51SB1#1          GAGE1            51SB1            1.25     48.8     100.0    0.73462  0                        
  1121#1           GAGE1            1121             21.3     32.7     200.0    0.7545   0                        
  6SB3#1           GAGE1            6SB3             3.4      29.9     150.0    0.40512  0                        
  4SB3#1           GAGE1            4SB3             2.8      40.7     100.0    0.32795  0                        
  5SB3#1           GAGE1            5SB3             2.45     38.1     100.0    0.49974  0                        
  3SB3#1           GAGE1            3SB3             2.29     48.1     125.0    0.8354   0                        
  2SB3#1           GAGE1            2SB3             2.53     38.8     100.0    0.72591  0                        
  8SB3_OF#1        GAGE1            8SB3_OF          4.35     9.6      300.0    0.84439  0                        
  1SB4#1           GAGE1            1SB4             2.23     44.9     100.0    0.6863   0                        
  2SB4#1           GAGE1            2SB4             1.53     46.3     75.0     0.30009  0                        
  44SB1#1          GAGE1            44SB1            5.87     37.2     100.0    0.15644  0                        
  45SB1#1          GAGE1            45SB1            5.22     32.5     175.0    0.20523  0                        
  43SB1#1          GAGE1            43SB1            4.5      50.2     100.0    0.6802   0                        
  8SB1#1           GAGE1            8SB1             10.25    22.0     150.0    0.26876  0                        
  6SB1#1           GAGE1            6SB1             7.47     7.6      150.0    1.04489  0                        
  2SB1#1           GAGE1            2SB1             3.16     84.5     25.0     0.29059  0                        
  3SB1#1           GAGE1            3SB1             7.03     34.4     100.0    0.43541  0                        
  4SB1#1           GAGE1            4SB1             10.96    27.6     150.0    0.25135  0                        
  5SB1#1           GAGE1            5SB1             16.04    23.6     250.0    1.14498  0                        
  7SB1#1           GAGE1            7SB1             10.19    26.1     200.0    0.48061  0                        
  9SB1#1           GAGE1            9SB1             11.92    19.5     175.0    0.3595   0                        
  11SB1#1          GAGE1            11SB1            6.17     56.2     100.0    0.4961   0                        
  32SB1#1          GAGE1            32SB1            4.27     51.7     125.0    0.08961  0                        
  34SB1#1          GAGE1            34SB1            8.81     48.6     100.0    0.59064  0                        
  39SB1#1          GAGE1            39SB1            9.11     39.2     150.0    0.55439  0                        
  38SB1#1          GAGE1            38SB1            3.56     45.7     75.0     0.16121  0                        
  37SB1#1          GAGE1            37SB1            3.52     33.0     100.0    0.78262  0                        
  35SB1#1          GAGE1            35SB1            5.75     39.4     125.0    0.66542  0                        
  33SB1#1          GAGE1            33SB1            4.46     39.6     200.0    0.13726  0                        
  12SB1#1          GAGE1            12SB1            6.28     39.4     100.0    0.34118  0                        
  22SB1#1          GAGE1            22SB1            5.61     37.3     100.0    0.87299  0                        
  21SB1#1          GAGE1            21SB1            11.39    31.6     150.0    0.88683  0                        
  14SB1#1          GAGE1            14SB1            10.05    40.2     100.0    0.36548  0                        
  13SB1#1          GAGE1            13SB1            7.55     34.4     150.0    0.66894  0                        
  23SB1#1          GAGE1            23SB1            10.53    33.5     150.0    0.17441  0                        
  20SB1#1          GAGE1            20SB1            8.85     33.0     150.0    1.24512  0                        
  24SB1#1          GAGE1            24SB1            3.67     40.4     200.0    0.83404  0                        
  26SB1#1          GAGE1            26SB1            4.02     32.0     100.0    1.52284  0                        
  27SB1#1          GAGE1            27SB1            4.82     37.2     125.0    0.95257  0                        
  28SB1#1          GAGE1            28SB1            10.09    41.1     125.0    0.64464  0                        
  25SB1#1          GAGE1            25SB1            11.92    39.3     125.0    0.77036  0                        
  19SB1#1          GAGE1            19SB1            5.43     36.5     150.0    0.25367  0                        
  18SB1#1          GAGE1            18SB1            3.06     50.6     75.0     0.52516  0                        
  15SB1#1          GAGE1            15SB1            4.12     39.5     100.0    0.44576  0                        
  31SB1#1          GAGE1            31SB1            10.71    59.1     100.0    0.5716   0                        
  40SB1#1          GAGE1            40SB1            15.52    27.0     250.0    1.13404  0                        
  41SB1#1          GAGE1            41SB1            14.19    2.1      200.0    0.99226  0                        
  46SB1#1          GAGE1            46SB1            6.31     36.6     200.0    0.19404  0                        
  4SB5_OF#1        GAGE1            4SB5_OF          3.32     17.3     300.0    2.21271  0                        
  15SB6#1          GAGE1            15SB6            10.57    44.6     200.0    1.04251  0                        
  14SB6#1          GAGE1            14SB6            4.72     7.2      75.0     0.97275  0                        
  12SB6#1          GAGE1            12SB6            4.46     87.9     250.0    0.85788  0                        
  19SB6#1          GAGE1            19SB6            4.97     31.9     100.0    1.97081  0                        
  26SB6#1          GAGE1            26SB6            2.59     40.8     100.0    0.59091  0                        
  25SB6#1          GAGE1            25SB6            7.76     38.2     125.0    1.18334  0                        
  24SB6#1          GAGE1            24SB6            9.64     39.3     150.0    1.52411  0                        
  20SB6#1          GAGE1            20SB6            3.63     30.4     125.0    1.47565  0                        
  18SB6#1          GAGE1            18SB6            4.59     31.0     75.0     1.0003   0                        
  17SB6#1          GAGE1            17SB6            3.52     56.8     75.0     0.65218  0                        
  16SB6#1          GAGE1            16SB6            7.99     45.4     250.0    0.28732  0                        
  11SB6#1          GAGE1            11SB6            6.81     49.4     150.0    0.26968  0                        
  10SB6#1          GAGE1            10SB6            8.85     73.8     200.0    0.13835  0                        
  21SB6#1          GAGE1            21SB6            4.61     38.0     100.0    0.92956  0                        
  22SB6#1          GAGE1            22SB6            5.41     40.3     125.0    1.06085  0                        
  23SB6#1          GAGE1            23SB6            6.79     46.5     150.0    1.01429  0                        
  13SB6#1          GAGE1            13SB6            12.43    37.3     175.0    0.77569  0                        
  7SB6#1           GAGE1            7SB6             2.93     67.2     100.0    0.1567   0                        
  8SB6#1           GAGE1            8SB6             6.83     6.7      150.0    1.00835  0                        
  5SB6#1           GAGE1            5SB6             5.78     13.4     400.0    0.63548  0                        
  4SB6#1           GAGE1            4SB6             5.15     35.5     100.0    0.41605  0                        
  3SB6#1           GAGE1            3SB6             4.26     36.9     150.0    0.26945  0                        
  1SB22#1          GAGE1            1SB22            4.16     46.7     75.0     0.60703  0                        
  2SB22#1          GAGE1            2SB22            5.75     10.3     75.0     0.4791   0                        
  2SB21#1          GAGE1            2SB21            5.63     14.8     75.0     0.53009  0                        
  1SB21#1          GAGE1            1SB21            3.52     47.2     75.0     1.10871  0                        
  1SB20#1          GAGE1            1SB20            4.58     50.7     75.0     0.45112  0                        
  1SB7#1           GAGE1            1SB7             5.47     24.0     150.0    0.83937  0                        
  2SB7#1           GAGE1            2SB7             1.55     41.6     75.0     0.22216  0                        
  3SB7#1           GAGE1            3SB7             2.1      23.1     75.0     0.43727  0                        
  5SB7_OF#1        GAGE1            5SB7_OF          6.38     8.2      500.0    1.91907  0                        
  2SB20_OF#1       GAGE1            2SB20_OF         6.14     44.3     125.0    1.24667  0                        
  1SB19#1          GAGE1            1SB19            6.51     46.3     125.0    0.29387  0                        
  2SB19#1          GAGE1            2SB19            3.35     3.7      65.0     0.71269  0                        
  4SB19_OF#1       GAGE1            4SB19_OF         2.66     6.2      175.0    3.62476  0                        
  4SB9#1           GAGE1            4SB9             15.2     16.0     250.0    1.2586   0                        
  3SB9#1           GAGE1            3SB9             6.58     10.6     200.0    1.11644  0                        
  1SB9#1           GAGE1            1SB9             9.02     29.4     150.0    0.71263  0                        
  SB1018_OF#1      GAGE1            SB1018_OF        2.25     9.4      225.0    2.44873  0                        
  SB1018_OF#2      GAGE1            SB1018_OF        4.25     28.2     450.0    3.41     0                        
  SB1018_OF#3      GAGE1            SB1018_OF        11.9     42.3     600.0    1.04     0                        
  17SB11#1         GAGE1            17SB11           23.8     37.0     200.0    1.33333  0                        
  17SB11#2         GAGE1            17SB11           37.2     22.0     400.0    2.0      0                        
  17SB11#3         GAGE1            17SB11           9.1      62.0     400.0    2.0      0                        
  16SB11#1         GAGE1            16SB11           25.46    36.5     250.0    1.32247  0                        
  15SB11#1         GAGE1            15SB11           16.92    28.2     175.0    1.48794  0                        
  14SB11#1         GAGE1            14SB11           11.43    27.5     125.0    1.13813  0                        
  13SB11#1         GAGE1            13SB11           18.2     25.9     300.0    1.51364  0                        
  5SB11#1          GAGE1            5SB11            9.0      59.9     150.0    0.71421  0                        
  11SB11#1         GAGE1            11SB11           7.34     29.9     150.0    1.12595  0                        
  10SB11#1         GAGE1            10SB11           7.56     29.1     150.0    1.57904  0                        
  9SB11#1          GAGE1            9SB11            5.96     14.6     125.0    1.92591  0                        
  12SB11#1         GAGE1            12SB11           6.24     73.3     75.0     0.95654  0                        
  8SB11#1          GAGE1            8SB11            3.02     60.9     100.0    2.2298   0                        
  7SB11#1          GAGE1            7SB11            4.18     77.8     125.0    0.54921  0                        
  6SB11#1          GAGE1            6SB11            9.44     71.8     200.0    0.1297   0                        
  4SB11#1          GAGE1            4SB11            11.43    62.3     225.0    0.30127  0                        
  2SB11#1          GAGE1            2SB11            12.82    62.3     125.0    0.53721  0                        
  2SB11#2          GAGE1            2SB11            16.88    47.9     250.0    1.292    0                        
  5SB17#1          GAGE1            5SB17            8.32     36.5     150.0    0.55185  0                        
  8SB17#1          GAGE1            8SB17            8.81     26.7     150.0    0.78173  0                        
  7SB17#1          GAGE1            7SB17            7.31     34.6     150.0    0.50248  0                        
  6SB17#1          GAGE1            6SB17            5.46     27.2     150.0    0.67273  0                        
  9SB17#1          GAGE1            9SB17            5.53     16.6     150.0    1.66053  0                        
  16SB17#1         GAGE1            16SB17           4.19     25.6     100.0    0.36526  0                        
  10SB17#1         GAGE1            10SB17           7.14     10.1     150.0    0.83596  0                        
  14SB17#1         GAGE1            14SB17           4.52     27.0     75.0     0.30474  0                        
  11SB17#1         GAGE1            11SB17           4.81     29.9     100.0    1.27273  0                        
  13SB17#1         GAGE1            13SB17           3.67     5.2      30.0     0.5004   0                        
  17SB17#1         GAGE1            17SB17           9.07     17.8     125.0    0.12655  0                        
  4SB17#1          GAGE1            4SB17            6.86     39.4     200.0    0.80315  0                        
  3SB17#1          GAGE1            3SB17            6.3      48.8     125.0    0.48586  0                        
  2SB17#1          GAGE1            2SB17            9.23     40.2     125.0    0.53889  0                        
  SB1216_OF#1      GAGE1            SB1216_OF        7.51     44.4     150.0    0.49333  0                        
  SB1216_OF#2      GAGE1            SB1216_OF        3.81     81.7     300.0    0.54     0                        
  1SB14#1          GAGE1            1SB14            3.5      40.8     125.0    0.54659  0                        
  2SB14#1          GAGE1            2SB14            15.93    24.8     350.0    0.67252  0                        
  3SB14#1          GAGE1            3SB14            6.1      27.6     150.0    0.67742  0                        
  4SB14#1          GAGE1            4SB14            5.43     28.9     175.0    1.28243  0                        
  7SB14#1          GAGE1            7SB14            4.78     6.1      125.0    1.04058  0                        
  6SB14#1          GAGE1            6SB14            3.24     48.9     75.0     1.20453  0                        
  5SB14#1          GAGE1            5SB14            3.71     4.2      75.0     1.23757  0                        
  9SB14#1          GAGE1            9SB14            6.12     34.1     150.0    0.75022  0                        
  8SB14#1          GAGE1            8SB14            2.21     48.3     75.0     0.83102  0                        
  10SB14#1         GAGE1            10SB14           8.47     58.2     75.0     0.56918  0                        
  11SB14_OF#1      GAGE1            11SB14_OF        18.27    4.6      225.0    0.90667  0                        
  11SB14_OF#2      GAGE1            11SB14_OF        16.65    42.8     225.0    1.0      0                        
  0.10_UP#1        GAGE1            0.10_UP          113.0    26.0     1200.0   1.0      0                        
  3SB21#1          GAGE1            3SB21            4.21     14.2     65.0     0.70888  0                        

[SUBAREAS]
;;Subcatchment     N-Imperv   N-Perv     S-Imperv   S-Perv     PctZero    RouteTo    PctRouted
;;--------------------------------------------------------------------------------------------
  1SB5#1           0.018      0.035      0.1        0.2        25         OUTLET    
  2SB5#1           0.018      0.035      0.1        0.2        25         OUTLET    
  1SB23#1          0.018      0.035      0.1        0.2        25         OUTLET    
  2SB23#1          0.018      0.035      0.1        0.2        25         OUTLET    
  4SB23#1          0.018      0.035      0.1        0.2        25         OUTLET    
  3SB23#1          0.018      0.035      0.1        0.2        25         OUTLET    
  49SB1#1          0.018      0.035      0.1        0.2        25         OUTLET    
  51SB1#1          0.018      0.035      0.1        0.2        25         OUTLET    
  1121#1           0.018      0.035      0.1        0.2        25         OUTLET    
  6SB3#1           0.018      0.035      0.1        0.2        25         OUTLET    
  4SB3#1           0.018      0.035      0.1        0.2        25         OUTLET    
  5SB3#1           0.018      0.035      0.1        0.2        25         OUTLET    
  3SB3#1           0.018      0.035      0.1        0.2        25         OUTLET    
  2SB3#1           0.018      0.035      0.1        0.2        25         OUTLET    
  8SB3_OF#1        0.018      0.035      0.1        0.2        25         OUTLET    
  1SB4#1           0.018      0.035      0.1        0.2        25         OUTLET    
  2SB4#1           0.018      0.035      0.1        0.2        25         OUTLET    
  44SB1#1          0.018      0.035      0.1        0.2        25         OUTLET    
  45SB1#1          0.018      0.035      0.1        0.2        25         OUTLET    
  43SB1#1          0.018      0.035      0.1        0.2        25         OUTLET    
  8SB1#1           0.018      0.035      0.1        0.2        25         OUTLET    
  6SB1#1           0.018      0.035      0.1        0.2        25         OUTLET    
  2SB1#1           0.018      0.035      0.1        0.2        25         OUTLET    
  3SB1#1           0.018      0.035      0.1        0.2        25         OUTLET    
  4SB1#1           0.018      0.035      0.1        0.2        25         OUTLET    
  5SB1#1           0.018      0.035      0.1        0.2        25         OUTLET    
  7SB1#1           0.018      0.035      0.1        0.2        25         OUTLET    
  9SB1#1           0.018      0.035      0.1        0.2        25         OUTLET    
  11SB1#1          0.018      0.035      0.1        0.2        25         OUTLET    
  32SB1#1          0.018      0.035      0.1        0.2        25         OUTLET    
  34SB1#1          0.018      0.035      0.1        0.2        25         OUTLET    
  39SB1#1          0.018      0.035      0.1        0.2        25         OUTLET    
  38SB1#1          0.018      0.035      0.1        0.2        25         OUTLET    
  37SB1#1          0.018      0.035      0.1        0.2        25         OUTLET    
  35SB1#1          0.018      0.035      0.1        0.2        25         OUTLET    
  33SB1#1          0.018      0.035      0.1        0.2        25         OUTLET    
  12SB1#1          0.018      0.035      0.1        0.2        25         OUTLET    
  22SB1#1          0.018      0.035      0.1        0.2        25         OUTLET    
  21SB1#1          0.018      0.035      0.1        0.2        25         OUTLET    
  14SB1#1          0.018      0.035      0.1        0.2        25         OUTLET    
  13SB1#1          0.018      0.035      0.1        0.2        25         OUTLET    
  23SB1#1          0.018      0.035      0.1        0.2        25         OUTLET    
  20SB1#1          0.018      0.035      0.1        0.2        25         OUTLET    
  24SB1#1          0.018      0.035      0.1        0.2        25         OUTLET    
  26SB1#1          0.018      0.035      0.1        0.2        25         OUTLET    
  27SB1#1          0.018      0.035      0.1        0.2        25         OUTLET    
  28SB1#1          0.018      0.035      0.1        0.2        25         OUTLET    
  25SB1#1          0.018      0.035      0.1        0.2        25         OUTLET    
  19SB1#1          0.018      0.035      0.1        0.2        25         OUTLET    
  18SB1#1          0.018      0.035      0.1        0.2        25         OUTLET    
  15SB1#1          0.018      0.035      0.1        0.2        25         OUTLET    
  31SB1#1          0.018      0.035      0.1        0.2        25         OUTLET    
  40SB1#1          0.018      0.035      0.1        0.2        25         OUTLET    
  41SB1#1          0.018      0.035      0.1        0.2        25         OUTLET    
  46SB1#1          0.018      0.035      0.1        0.2        25         OUTLET    
  4SB5_OF#1        0.018      0.035      0.1        0.2        25         OUTLET    
  15SB6#1          0.018      0.035      0.1        0.2        25         OUTLET    
  14SB6#1          0.018      0.035      0.1        0.2        25         OUTLET    
  12SB6#1          0.018      0.035      0.1        0.2        25         OUTLET    
  19SB6#1          0.018      0.035      0.1        0.2        25         OUTLET    
  26SB6#1          0.018      0.035      0.1        0.2        25         OUTLET    
  25SB6#1          0.018      0.035      0.1        0.2        25         OUTLET    
  24SB6#1          0.018      0.035      0.1        0.2        25         OUTLET    
  20SB6#1          0.018      0.035      0.1        0.2        25         OUTLET    
  18SB6#1          0.018      0.035      0.1        0.2        25         OUTLET    
  17SB6#1          0.018      0.035      0.1        0.2        25         OUTLET    
  16SB6#1          0.018      0.035      0.1        0.2        25         OUTLET    
  11SB6#1          0.018      0.035      0.1        0.2        25         OUTLET    
  10SB6#1          0.018      0.035      0.1        0.2        25         OUTLET    
  21SB6#1          0.018      0.035      0.1        0.2        25         OUTLET    
  22SB6#1          0.018      0.035      0.1        0.2        25         OUTLET    
  23SB6#1          0.018      0.035      0.1        0.2        25         OUTLET    
  13SB6#1          0.018      0.035      0.1        0.2        25         OUTLET    
  7SB6#1           0.018      0.035      0.1        0.2        25         OUTLET    
  8SB6#1           0.016      0.03       0.1        0.2        25         OUTLET    
  5SB6#1           0.018      0.035      0.1        0.2        25         OUTLET    
  4SB6#1           0.018      0.035      0.1        0.2        25         OUTLET    
  3SB6#1           0.018      0.035      0.1        0.2        25         OUTLET    
  1SB22#1          0.018      0.035      0.1        0.2        25         OUTLET    
  2SB22#1          0.018      0.035      0.1        0.2        25         OUTLET    
  2SB21#1          0.018      0.035      0.1        0.2        25         OUTLET    
  1SB21#1          0.018      0.035      0.1        0.2        25         OUTLET    
  1SB20#1          0.018      0.035      0.1        0.2        25         OUTLET    
  1SB7#1           0.018      0.035      0.1        0.2        25         OUTLET    
  2SB7#1           0.018      0.035      0.1        0.2        25         OUTLET    
  3SB7#1           0.018      0.035      0.1        0.2        25         OUTLET    
  5SB7_OF#1        0.018      0.035      0.1        0.2        25         OUTLET    
  2SB20_OF#1       0.018      0.035      0.1        0.2        25         OUTLET    
  1SB19#1          0.016      0.03       0.1        0.2        25         OUTLET    
  2SB19#1          0.018      0.035      0.1        0.2        25         OUTLET    
  4SB19_OF#1       0.018      0.035      0.1        0.2        25         OUTLET    
  4SB9#1           0.018      0.035      0.1        0.2        25         OUTLET    
  3SB9#1           0.018      0.035      0.1        0.2        25         OUTLET    
  1SB9#1           0.018      0.035      0.1        0.2        25         OUTLET    
  SB1018_OF#1      0.018      0.035      0.1        0.2        25         OUTLET    
  SB1018_OF#2      0.018      0.035      0.1        0.2        25         OUTLET    
  SB1018_OF#3      0.018      0.035      0.1        0.2        25         OUTLET    
  17SB11#1         0.018      0.035      0.1        0.2        25         OUTLET    
  17SB11#2         0.018      0.035      0.1        0.2        25         OUTLET    
  17SB11#3         0.018      0.035      0.1        0.2        25         OUTLET    
  16SB11#1         0.018      0.035      0.1        0.2        25         OUTLET    
  15SB11#1         0.018      0.035      0.1        0.2        25         OUTLET    
  14SB11#1         0.018      0.035      0.1        0.2        25         OUTLET    
  13SB11#1         0.018      0.035      0.1        0.2        25         OUTLET    
  5SB11#1          0.016      0.03       0.1        0.2        25         OUTLET    
  11SB11#1         0.018      0.035      0.1        0.2        25         OUTLET    
  10SB11#1         0.018      0.035      0.1        0.2        25         OUTLET    
  9SB11#1          0.018      0.035      0.1        0.2        25         OUTLET    
  12SB11#1         0.018      0.035      0.1        0.2        25         OUTLET    
  8SB11#1          0.018      0.035      0.1        0.2        25         OUTLET    
  7SB11#1          0.018      0.035      0.1        0.2        25         OUTLET    
  6SB11#1          0.018      0.035      0.1        0.2        25         OUTLET    
  4SB11#1          0.016      0.03       0.1        0.2        25         OUTLET    
  2SB11#1          0.016      0.03       0.1        0.2        25         OUTLET    
  2SB11#2          0.016      0.03       0.1        0.2        25         OUTLET    
  5SB17#1          0.018      0.035      0.1        0.2        25         OUTLET    
  8SB17#1          0.018      0.035      0.1        0.2        25         OUTLET    
  7SB17#1          0.018      0.035      0.1        0.2        25         OUTLET    
  6SB17#1          0.018      0.035      0.1        0.2        25         OUTLET    
  9SB17#1          0.018      0.035      0.1        0.2        25         OUTLET    
  16SB17#1         0.018      0.035      0.1        0.2        25         OUTLET    
  10SB17#1         0.018      0.035      0.1        0.2        25         OUTLET    
  14SB17#1         0.018      0.035      0.1        0.2        25         OUTLET    
  11SB17#1         0.018      0.035      0.1        0.2        25         OUTLET    
  13SB17#1         0.018      0.035      0.1        0.2        25         OUTLET    
  17SB17#1         0.018      0.035      0.1        0.2        25         OUTLET    
  4SB17#1          0.018      0.035      0.1        0.2        25         OUTLET    
  3SB17#1          0.018      0.035      0.1        0.2        25         OUTLET    
  2SB17#1          0.016      0.03       0.1        0.2        25         OUTLET    
  SB1216_OF#1      0.016      0.03       0.1        0.2        25         OUTLET    
  SB1216_OF#2      0.016      0.03       0.1        0.2        25         OUTLET    
  1SB14#1          0.018      0.035      0.1        0.2        25         OUTLET    
  2SB14#1          0.018      0.035      0.1        0.2        25         OUTLET    
  3SB14#1          0.018      0.035      0.1        0.2        25         OUTLET    
  4SB14#1          0.018      0.035      0.1        0.2        25         OUTLET    
  7SB14#1          0.018      0.035      0.1        0.2        25         OUTLET    