[TITLE]
;;Project Title/Notes
A site surface drainage model.
See Site_Drainage_Model.txt for more details.

[OPTIONS]
;;Option             Value
FLOW_UNITS           CFS
INFILTRATION         HORTON
FLOW_ROUTING         DYNWAVE
LINK_OFFSETS         DEPTH
MIN_SLOPE            0
ALLOW_PONDING        NO
SKIP_STEADY_STATE    NO

START_DATE           01/01/1998
START_TIME           16:00:00
REPORT_START_DATE    01/01/1998
REPORT_START_TIME    16:00:00
END_DATE             01/02/1998
END_TIME             06:00:00
SWEEP_START          01/01
SWEEP_END            12/31
DRY_DAYS             5
REPORT_STEP          00:05:00
WET_STEP             00:01:00
DRY_STEP             00:05:00
ROUTING_STEP         0:00:05 
RULE_STEP            00:00:00

INERTIAL_DAMPING     PARTIAL
NORMAL_FLOW_LIMITED  SLOPE
FORCE_MAIN_EQUATION  H-W
VARIABLE_STEP        0.75
LENGTHENING_STEP     0
MIN_SURFAREA         12.566
MAX_TRIALS           8
HEAD_TOLERANCE       0.005
SYS_FLOW_TOL         5
LAT_FLOW_TOL         5
MINIMUM_STEP         0.5
THREADS              1


[FILES]
;;Interfacing Files
USE HOTSTART "hotstart_v2.hsf"

[EVAPORATION]
;;Data Source    Parameters
;;-------------- ----------------
CONSTANT         0.0
DRY_ONLY         NO

[RAINGAGES]
;;Name           Format    Interval SCF      Source    
;;-------------- --------- ------ ------ ----------
RainGage         VOLUME    0:05     1.0      TIMESERIES 2-yr            

[SUBCATCHMENTS]
;;Name           Rain Gage        Outlet           Area     %Imperv  Width    %Slope   CurbLen  SnowPack        
;;-------------- ---------------- ---------------- -------- -------- -------- -------- -------- ----------------
S1               RainGage         J1               4.55     56.8     1587     2        1680                     
S2               RainGage         J2               4.74     63.0     1653     2        1680                     
S3               RainGage         J3               3.74     39.5     1456     3.1      930                      
S4               RainGage         J7               6.79     49.9     2331     3.1      2250                     
S5               RainGage         J10              4.79     87.7     1670     2        2480                     
S6               RainGage         J11              1.98     95.0     690      2        1100                     
S7               RainGage         J10              2.33     0.0      907      3.1      565                      

[SUBAREAS]
;;Subcatchment   N-Imperv   N-Perv     S-Imperv   S-Perv     PctZero    RouteTo    PctRouted 
;;-------------- ---------- ---------- ---------- ---------- ---------- ---------- ----------
S1               0.015      0.24       0.06       0.3        25         OUTLET    
S2               0.015      0.24       0.06       0.3        25         OUTLET    
S3               0.015      0.24       0.06       0.3        25         OUTLET    
S4               0.015      0.24       0.06       0.3        25         OUTLET    
S5               0.015      0.24       0.06       0.3        25         OUTLET    
S6               0.015      0.24       0.06       0.3        25         OUTLET    
S7               0.015      0.24       0.06       0.3        25         OUTLET    

[INFILTRATION]
;;Subcatchment   Param1     Param2     Param3     Param4     Param5    
;;-------------- ---------- ---------- ---------- ---------- ----------
S1               4.5        0.2        6.5        7          0         
S2               4.5        0.2        6.5        7          0         
S3               4.5        0.2        6.5        7          0         
S4               4.5        0.2        6.5        7          0         
S5               4.5        0.2        6.5        7          0         
S6               4.5        0.2        6.5        7          0         
S7               4.5        0.2        6.5        7          0         

[JUNCTIONS]
;;Name           Elevation  MaxDepth   InitDepth  SurDepth   Aponded   
;;-------------- ---------- ---------- ---------- ---------- ----------
J1               4973       0          0          0          0         
J2               4969       0          0          0          0         
J3               4973       0          0          0          0         
J4               4971       0          0          0          0         
J5               4969.8     0          0          0          0         
J6               4969       0          0          0          0         
J7               4971.5     0          0          0          0         
J8               4966.5     0          0          0          0         
J9               4964.8     0          0          0          0         
J10              4963.8     0          0          0          0         
J11              4963       0          0          0          0         

[OUTFALLS]
;;Name           Elevation  Type       Stage Data       Gated    Route To        
;;-------------- ---------- ---------- ---------------- -------- ----------------
O1               4962       FREE                        NO                       

[CONDUITS]
;;Name           From Node        To Node          Length     Roughness  InOffset   OutOffset  InitFlow   MaxFlow   
;;-------------- ---------------- ---------------- ---------- ---------- ---------- ---------- ---------- ----------
C1               J1               J5               185.00     0.05       0          0          0          0         
C2               J2               J11              526.00     0.016      0          4          0          0         
C3               J3               J4               109.00     0.016      0          0          0          0         
C4               J4               J5               133.00     0.05       0          0          0          0         
C5               J5               J6               207.00     0.05       0          0          0          0         
C6               J7               J6               140.00     0.05       0          0          0          0         
C7               J6               J8               95.00      0.016      0          0          0          0         
C8               J8               J9               166.00     0.05       0          0          0          0         
C9               J9               J10              320.00     0.05       0          0          0          0         
C10              J10              J11              145.00     0.05       0          0          0          0         
C11              J11              O1               89.00      0.016      0          0          0          0         

[XSECTIONS]
;;Link           Shape        Geom1            Geom2      Geom3      Geom4      Barrels    Culvert   
;;-------------- ------------ ---------------- ---------- ---------- ---------- ---------- ----------
C1               TRAPEZOIDAL  3                5          5          5          1                    
C2               TRAPEZOIDAL  1                0          0.0001     25         1                    
C3               CIRCULAR     2.25             0          0          0          1                    
C4               TRAPEZOIDAL  3                5          5          5          1                    
C5               TRAPEZOIDAL  3                5          5          5          1                    
C6               TRAPEZOIDAL  3                5          5          5          1                    
C7               CIRCULAR     3.5              0          0          0          1                    
C8               TRAPEZOIDAL  3                5          5          5          1                    
C9               TRAPEZOIDAL  3                5          5          5          1                    
C10              TRAPEZOIDAL  3                5          5          5          1                    
C11              CIRCULAR     4.75             0          0          0          1                    

[POLLUTANTS]
;;Name           Units  Crain      Cgw        Crdii      Kdecay     SnowOnly   Co-Pollutant     Co-Frac    Cdwf       Cinit     
;;-------------- ------ ---------- ---------- ---------- ---------- ---------- ---------------- ---------- ---------- ----------
TSS              MG/L   0.0        0.0        0.0        0.0        NO         *                0.0        0          0         

[LANDUSES]
;;               Sweeping   Fraction   Last      
;;Name           Interval   Available  Swept     
;;-------------- ---------- ---------- ----------
Residential_1    0          0          0         
Residential_2    0          0          0         
Commercial       0          0          0         
Undeveloped      0          0          0         

[COVERAGES]
;;Subcatchment   Land Use         Percent   
;;-------------- ---------------- ----------
S1               Residential_1    100       
S2               Residential_1    27        
S2               Residential_2    73        
S3               Residential_1    27        
S3               Residential_2    32        
S4               Residential_1    9         
S4               Residential_2    30        
S4               Commercial       26        
S5               Commercial       98        
S6               Commercial       100       

[LOADINGS]
;;Subcatchment   Pollutant        Buildup   
;;-------------- ---------------- ----------

[BUILDUP]
;;Land Use       Pollutant        Function   Coeff1     Coeff2     Coeff3     Per Unit  
;;-------------- ---------------- ---------- ---------- ---------- ---------- ----------
Residential_1    TSS              EXP        0.11       0.5        0.0        CURB      
Residential_2    TSS              EXP        0.13       0.5        0.0        CURB      
Commercial       TSS              EXP        0.15       0.2        0.0        CURB      
Undeveloped      TSS              NONE       0.0        0.0        0.0        AREA      

[WASHOFF]
;;Land Use       Pollutant        Function   Coeff1     Coeff2     SweepRmvl  BmpRmvl   
;;-------------- ---------------- ---------- ---------- ---------- ---------- ----------
Residential_1    TSS              EXP        2          1.8        0.0        0.0       
Residential_2    TSS              EXP        4          2.2        0.0        0.0       
Commercial       TSS              EXP        4          2.2        0.0        0.0       
Undeveloped      TSS              RC         500        2          0.0        0.0       

[TIMESERIES]
;;Name           Date       Time       Value     
;;-------------- ---------- ---------- ----------
2-yr          	0:06	0
2-yr          	0:12	0.00284
2-yr          	0:18	0.00284
2-yr          	0:24	0.00284
2-yr          	0:30	0.003124
2-yr          	0:36	0.00284
2-yr          	0:42	0.003124
2-yr          	0:48	0.00284
2-yr          	0:54	0.003124
2-yr          	1:00	0.003124
2-yr          	1:06	0.003124
2-yr          	1:12	0.003124
2-yr          	1:18	0.003124
2-yr          	1:24	0.003124
2-yr          	1:30	0.003408
2-yr          	1:36	0.003124
2-yr          	1:42	0.003408
2-yr          	1:48	0.003124
2-yr          	1:54	0.003408
2-yr          	2:00	0.003408
2-yr          	2:06	0.003408
2-yr          	2:12	0.003408
2-yr          	2:18	0.003408
2-yr          	2:24	0.003692
2-yr          	2:30	0.003408
2-yr          	2:36	0.003408
2-yr          	2:42	0.003692
2-yr          	2:48	0.003408
2-yr          	2:54	0.003692
2-yr          	3:00	0.003692
2-yr          	3:06	0.003692
2-yr          	3:12	0.003692
2-yr          	3:18	0.003692
2-yr          	3:24	0.003692
2-yr          	3:30	0.003976
2-yr          	3:36	0.003692
2-yr          	3:42	0.003976
2-yr          	3:48	0.003976
2-yr          	3:54	0.003692
2-yr          	4:00	0.003976
2-yr          	4:06	0.003976
2-yr          	4:12	0.003976
2-yr          	4:18	0.003976
2-yr          	4:24	0.00426
2-yr          	4:30	0.00426
2-yr          	4:36	0.00426
2-yr          	4:42	0.00426
2-yr          	4:48	0.00426
2-yr          	4:54	0.00426
2-yr          	5:00	0.004544
2-yr          	5:06	0.004544
2-yr          	5:12	0.004544
2-yr          	5:18	0.004544
2-yr          	5:24	0.004828
2-yr          	5:30	0.004828
2-yr          	5:36	0.004544
2-yr          	5:42	0.005112
2-yr          	5:48	0.004828
2-yr          	5:54	0.004828
2-yr          	6:00	0.005112
2-yr          	6:06	0.005112
2-yr          	6:12	0.005112
2-yr          	6:18	0.005112
2-yr          	6:24	0.005396
2-yr          	6:30	0.005396
2-yr          	6:36	0.005112
2-yr          	6:42	0.00568
2-yr          	6:48	0.005396
2-yr          	6:54	0.005396
2-yr          	7:00	0.00568
2-yr          	7:06	0.00568
2-yr          	7:12	0.00568
2-yr          	7:18	0.00568
2-yr          	7:24	0.005964
2-yr          	7:30	0.005964
2-yr          	7:36	0.005964
2-yr          	7:42	0.005964
2-yr          	7:48	0.005964
2-yr          	7:54	0.005964
2-yr          	8:00	0.006248
2-yr          	8:06	0.006248
2-yr          	8:12	0.006248
2-yr          	8:18	0.006816
2-yr          	8:24	0.006816
2-yr          	8:30	0.007384
2-yr          	8:36	0.007384
2-yr          	8:42	0.007952
2-yr          	8:48	0.008236
2-yr          	8:54	0.008236
2-yr          	9:00	0.00852
2-yr          	9:06	0.009088
2-yr          	9:12	0.009088
2-yr          	9:18	0.009088
2-yr          	9:24	0.009088
2-yr          	9:30	0.009088
2-yr          	9:36	0.009088
2-yr          	9:42	0.009372
2-yr          	9:48	0.009656
2-yr          	9:54	0.010224
2-yr          	10:00	0.010792
2-yr          	10:06	0.011076
2-yr          	10:12	0.011644
2-yr          	10:18	0.012496
2-yr          	10:24	0.013064
2-yr          	10:30	0.013632
2-yr          	10:36	0.014484
2-yr          	10:42	0.015336
2-yr          	10:48	0.016472
2-yr          	10:54	0.017608
2-yr          	11:00	0.018744
2-yr          	11:06	0.01988
2-yr          	11:12	0.021868
2-yr          	11:18	0.024424
2-yr          	11:24	0.027264
2-yr          	11:30	0.030104
2-yr          	11:36	0.03266
2-yr          	11:42	0.067592
2-yr          	11:48	0.135184
2-yr          	11:54	0.216976
2-yr          	12:00	0.389364
2-yr          	12:06	0.270084
2-yr          	12:12	0.05396
2-yr          	12:18	0.047144
2-yr          	12:24	0.040896
2-yr          	12:30	0.034648
2-yr          	12:36	0.027832
2-yr          	12:42	0.023856
2-yr          	12:48	0.02272
2-yr          	12:54	0.021016
2-yr          	13:00	0.019312
2-yr          	13:06	0.018176
2-yr          	13:12	0.01704
2-yr          	13:18	0.015904
2-yr          	13:24	0.015336
2-yr          	13:30	0.014768
2-yr          	13:36	0.013632
2-yr          	13:42	0.013064
2-yr          	13:48	0.012496
2-yr          	13:54	0.011928
2-yr          	14:00	0.01136
2-yr          	14:06	0.010792
2-yr          	14:12	0.010508
2-yr          	14:18	0.010224
2-yr          	14:24	0.00994
2-yr          	14:30	0.009656
2-yr          	14:36	0.009656
2-yr          	14:42	0.009372
2-yr          	14:48	0.009372
2-yr          	14:54	0.009088
2-yr          	15:00	0.008804
2-yr          	15:06	0.00852
2-yr          	15:12	0.00852
2-yr          	15:18	0.008236
2-yr          	15:24	0.007952
2-yr          	15:30	0.007668
2-yr          	15:36	0.007668
2-yr          	15:42	0.007384
2-yr          	15:48	0.007384
2-yr          	15:54	0.0071
2-yr          	16:00	0.006816
2-yr          	16:06	0.006532
2-yr          	16:12	0.006532
2-yr          	16:18	0.006248
2-yr          	16:24	0.006532
2-yr          	16:30	0.006248
2-yr          	16:36	0.006248
2-yr          	16:42	0.006248
2-yr          	16:48	0.005964
2-yr          	16:54	0.005964
2-yr          	17:00	0.005964
2-yr          	17:06	0.005964
2-yr          	17:12	0.00568
2-yr          	17:18	0.00568
2-yr          	17:24	0.00568
2-yr          	17:30	0.005396
2-yr          	17:36	0.00568
2-yr          	17:42	0.005396
2-yr          	17:48	0.005396
2-yr          	17:54	0.005112
2-yr          	18:00	0.005396
2-yr          	18:06	0.005112
2-yr          	18:12	0.005112
2-yr          	18:18	0.004828
2-yr          	18:24	0.005112
2-yr          	18:30	0.004828
2-yr          	18:36	0.004828
2-yr          	18:42	0.004544
2-yr          	18:48	0.004828
2-yr          	18:54	0.004544
2-yr          	19:00	0.004544
2-yr          	19:06	0.00426
2-yr          	19:12	0.004544
2-yr          	19:18	0.00426
2-yr          	19:24	0.00426
2-yr          	19:30	0.00426
2-yr          	19:36	0.003976
2-yr          	19:42	0.003976
2-yr          	19:48	0.003976
2-yr          	19:54	0.003692
2-yr          	20:00	0.003976
2-yr          	20:06	0.003692
2-yr          	20:12	0.003692
2-yr          	20:18	0.003692
2-yr          	20:24	0.003692
2-yr          	20:30	0.003692
2-yr          	20:36	0.003408
2-yr          	20:42	0.003692
2-yr          	20:48	0.003692
2-yr          	20:54	0.003408
2-yr          	21:00	0.003692
2-yr          	21:06	0.003408
2-yr          	21:12	0.003692
2-yr          	21:18	0.003408
2-yr          	21:24	0.003692
2-yr          	21:30	0.003408
2-yr          	21:36	0.003408
2-yr          	21:42	0.003692
2-yr          	21:48	0.003408
2-yr          	21:54	0.003408
2-yr          	22:00	0.003408
2-yr          	22:06	0.003408
2-yr          	22:12	0.003408
2-yr          	22:18	0.003408
2-yr          	22:24	0.003408
2-yr          	22:30	0.003408
2-yr          	22:36	0.003124
2-yr          	22:42	0.003408
2-yr          	22:48	0.003408
2-yr          	22:54	0.003124
2-yr          	23:00	0.003408
2-yr          	23:06	0.003124
2-yr          	23:12	0.003408
2-yr          	23:18	0.003124
2-yr          	23:24	0.003408
2-yr          	23:30	0.003124
2-yr          	23:36	0.003124
2-yr          	23:42	0.003408
2-yr          	23:48	0.003124
2-yr          	23:54	0.003124

[REPORT]
;;Reporting Options
SUBCATCHMENTS ALL
NODES ALL
LINKS ALL

[TAGS]
Link       C1               Swale           
Link       C2               Gutter          
Link       C3               Culvert         
Link       C4               Swale           
Link       C5               Swale           
Link       C6               Swale           
Link       C7               Culvert         
Link       C8               Swale           
Link       C9               Swale           
Link       C10              Swale           
Link       C11              Culvert         

[MAP]
DIMENSIONS -255.206 -70.199 1490.833 1514.231
Units      Feet

[COORDINATES]
;;Node           X-Coord            Y-Coord           
;;-------------- ------------------ ------------------
J1               648.532            1043.713          
J2               1221.281           1005.760          
J3               405.287            905.702           
J4               505.345            862.573           
J5               631.281            859.123           
J6               822.772            819.444           
J7               831.398            709.035           
J8               915.930            840.146           
J9               1072.918           867.749           
J10              1254.058           640.029           
J11              1334.823           497.305           
O1               1411.468           477.401           

[VERTICES]
;;Link           X-Coord            Y-Coord           
;;-------------- ------------------ ------------------
C2               1321.339           774.591           
C2               1374.819           652.105           
C2               1366.193           588.275           
C4               541.573            841.871           
C5               672.684            850.497           
C5               712.363            829.795           
C5               743.415            805.643           
C5               805.520            812.544           
C6               791.719            734.912           
C6               798.620            784.942           
C8               965.959            838.421           
C8               995.287            831.520           
C8               1038.415           850.497           
C9               1102.246           867.749           
C9               1131.573           852.222           
C9               1147.099           829.795           
C9               1162.626           809.094           
C9               1198.854           779.766           
C9               1219.556           757.339           
C9               1233.357           721.111           
C9               1238.532           715.936           
C9               1235.082           674.532           
C9               1247.158           646.930           

[Polygons]
;;Subcatchment   X-Coord            Y-Coord           
;;-------------- ------------------ ------------------
S1               282.657            1334.810          
S1               111.700            1101.604          
S1               172.525            1062.743          
S1               231.660            1027.262          
S1               306.002            990.092           
S1               370.206            959.679           
S1               409.066            946.163           
S1               444.547            936.025           
S1               493.545            924.198           
S1               532.405            915.750           
S1               569.576            907.302           
S1               610.125            897.165           
S1               655.744            897.165           
S1               684.338            1318.700          
S1               651.043            1321.922          
S1               596.269            1332.662          
S1               551.160            1346.624          
S1               495.312            1367.030          
S1               455.573            1384.214          
S1               410.465            1409.991          
S1               386.836            1427.175          
S1               363.208            1442.211          
S2               678.967            1238.149          
S2               673.584            1152.903          
S2               655.744            897.165           
S2               758.808            893.786           
S2               817.943            895.475           
S2               880.458            898.855           
S2               921.007            905.613           
S2               978.453            920.819           
S2               1042.657           937.715           
S2               1103.482           959.679           
S2               1159.238           985.023           
S2               1225.131           1010.367          
S2               1109.646           1274.665          
S2               1052.723           1400.325          
S2               985.061            1370.252          
S2               924.916            1348.772          
S2               861.549            1331.588          
S2               815.367            1325.144          
S2               762.740            1319.774          
S2               719.780            1316.552          
S2               684.338            1317.626          
S3               109.199            1103.258          
S3               141.754            1081.555          
S3               190.586            1051.713          
S3               247.557            1019.158          
S3               304.528            989.317           
S3               354.716            964.900           
S3               398.123            949.980           
S3               490.166            922.509           
S3               477.743            883.275           
S3               501.993            816.065           
S3               556.059            778.895           
S3               488.476            679.210           
S3               422.582            729.897           
S3               282.348            557.560           
S3               179.734            633.927           
S3               153.962            651.561           
S3               107.843            693.610           
S3               71.218             742.443           
S3               48.159             785.849           
S3               31.881             837.394           
S3               29.168             886.226           
S3               31.881             933.702           
S3               38.664             967.613           
S3               50.872             1001.525          
S3               65.793             1035.436          
S3               87.496             1070.704          
S3               109.199            1103.258          
S4               282.348            559.250           
S4               420.893            729.897           
S4               488.476            680.899           
S4               556.828            779.067           
S4               501.213            814.335           
S4               479.468            885.000           
S4               491.718            922.851           
S4               616.511            898.434           
S4               668.056            897.078           
S4               783.355            895.722           
S4               815.909            898.434           
S4               857.959            899.791           
S4               890.595            897.165           
S4               968.316            915.750           
S4               1042.657           937.715           
S4               1074.759           849.857           
S4               1054.484           773.826           
S4               1020.692           702.864           
S4               963.247            623.454           
S4               689.536            256.816           
S5               1301.482           474.258           
S5               1271.677           445.380           
S5               1232.340           393.835           
S5               1241.835           384.340           
S5               1222.844           366.706           
S5               1233.696           355.854           
S5               1026.159           66.931            
S5               1008.525           56.079            
S5               708.750            275.824           
S5               1023.446           704.462           
S5               1150.644           618.812           
S5               1251.203           640.809           
S5               1328.193           519.824           
S6               1334.478           519.824           
S6               1306.266           488.956           
S6               1293.380           474.205           
S6               1232.340           393.835           
S6               1241.835           381.627           
S6               1222.844           365.350           
S6               1232.340           353.142           
S6               1027.516           65.574            
S6               1012.595           56.079            
S6               707.393            273.111           
S6               688.403            254.121           
S6               739.948            218.853           
S6               788.780            159.169           
S6               806.414            106.268           
S6               813.197            1.821             
S6               994.961            12.673            
S6               1228.270           27.594            
S6               1222.844           115.763           
S6               1228.270           167.308           
S6               1241.835           229.705           
S6               1255.399           254.121           
S6               1279.815           302.953           
S6               1309.657           354.498           
S6               1335.430           401.974           
S6               1359.846           448.093           
S6               1370.616           475.830           
S6               1381.615           491.542           
S7               1122.467           968.970           
S7               1174.012           987.282           
S7               1225.557           1005.594          
S7               1377.480           675.977           
S7               1391.044           642.065           
S7               1396.470           598.659           
S7               1381.615           491.542           
S7               1331.336           519.824           
S7               1249.632           640.809           
S7               1150.644           617.241           
S7               1020.733           704.462           
S7               1054.645           772.285           
S7               1076.796           848.212           
S7               1056.370           900.062           
S7               1040.658           937.772           

[SYMBOLS]
;;Gage           X-Coord            Y-Coord           
;;-------------- ------------------ ------------------
RainGage         -175.841           1212.778          

[LABELS]
;;X-Coord          Y-Coord            Label           
218.836            1149.697           "S1" "" "Arial" 14 0 0
721.146            997.569            "S2" "" "Arial" 14 0 0
236.058            742.108            "S3" "" "Arial" 14 0 0
663.739            446.463            "S4" "" "Arial" 14 0 0
979.477            236.928            "S5" "" "Arial" 14 0 0
853.182            96.281             "S6" "" "Arial" 14 0 0
1094.291           753.590            "S7" "" "Arial" 14 0 0
1375.584           437.852            "Outfall" "" "Arial" 10 1 0

