[TITLE]
 Example 8 of Extran Manual -
 Various Conduit Types

[OPTIONS]
 FLOW_UNITS            CFS
 INFILTRATION          HORTON
 FLOW_ROUTING          DYNWAVE
 START_DATE            01/01/2002
 START_TIME            00:00:00
 REPORT_START_DATE     01/01/2002
 REPORT_START_TIME     00:00:00
 END_DATE              01/01/2002
 END_TIME              01:00:00
 SWEEP_START           01/01
 SWEEP_END             12/31
 DRY_DAYS              0
 REPORT_STEP           00:15:00
 WET_STEP              00:15:00
 DRY_STEP              01:00:00
 ROUTING_STEP          0:00:20 
 ALLOW_PONDING         NO
 INERTIAL_DAMPING      NONE
 VARIABLE_STEP         0.00
 LENGTHENING_STEP      0
 MIN_SURFAREA          0
 NORMAL_FLOW_LIMITED   BOTH
 SKIP_STEADY_STATE     NO
 THREADS               1

[FILES]
 SAVE HOTSTART "extran8.hsf"

[JUNCTIONS]
;;                 Invert     Max.       Init.      Surcharge  Ponded    
;;Name             Elev.      Depth      Depth      Depth      Area      
;;------------------------------------------------------------------------
  30001            802        8          0          0          0         
  30002            801        9          0          0          0         
  30003            800.5      9.5        0          0          0         
  30004            802.5      7.5        0          0          0         
  30005            801.5      8.5        0          0          0         
  30006            800        6          0          0          0         
  30007            803        3          0          0          0         
  30081            799        7          0          0          0         
  30082            798        8          0          0          0         

[OUTFALLS]
;;                 Invert     Outfall    Stage/Table      Tide
;;Name             Elev.      Type       Time Series      Gate
;;------------------------------------------------------------
  30083            796        FIXED      798              NO

[CONDUITS]
;;                 Inlet            Outlet                      Manning    Inlet      Outlet     Init.      Maximum
;;Name             Node             Node             Length     N          Height     Height     Flow       Flow
;;------------------------------------------------------------------------------------------------------------------------
  10001            30001            30002            510        0.015      0          0          0          0         
  10002            30002            30003            520        0.015      0          0          0          0         
  10003            30003            30006            530        0.015      0          0          0          0         
  10004            30004            30005            540        0.015      0          0          0          0         
  10005            30005            30006            550        0.015      0          1          0          0         
  10006            30006            30081            560        0.02       0          0          0          0         
  10007            30007            30006            570        0.018      0          2          0          0         
  10081            30081            30082            1000       0.015      0          0          20         0         
  10082            30082            30083            1000       0.015      0          0          20         0         

[XSECTIONS]
;;Link             Type         Geom1      Geom2      Geom3      Geom4      Barrels
;;---------------------------------------------------------------------------------
  10001            CIRCULAR     3          0          0          0          1         
  10002            RECT_CLOSED  3          3.5        0          0          1         
  10003            HORSESHOE    4.0        0          0          0          1         
  10004            EGG          4          0          0          0          1         
  10005            BASKETHANDLE 4          0          0          0          1         
  10006            TRAPEZOIDAL  5          8          0.25       0.25       1         
  10007            PARABOLIC    3          4          0          0          1         
  10081            IRREGULAR    91         0          0          0          1         
  10082            IRREGULAR    92         0          0          0          1         

[TRANSECTS]
;;--------------------------------------------------------------------------------------------

 NC 0.04     0.04     0.04    
 X1 91                6        50       110      0.0      0.0      0.0      0.0      799     
 GR 5        0        4        50       1        55       0        100      3        110     
 GR 5        150     

 NC 0.04     0.04     0.04    
 X1 92                6        55       115      0.0      0.0      0.0      0.0      798     
 GR 5        0        4.5      55       0        60       2        95       4        115     
 GR 6        160     

[DWF]
;;                                  Average    Time
;;Node             Parameter        Value      Patterns
;;-----------------------------------------------------
  30081            FLOW             20         ""

[TIMESERIES]
;;Name             Date       Time       Value     
;;-------------------------------------------------
  30081                       0          20        
  30081                       1          20        

  30001                       0          0         
  30001                       0.5        15        
  30001                       1.1        0         
  30001                       3.0        0         

  30004                       0          0         
  30004                       0.5        18        
  30004                       1.1        0         
  30004                       3          0         

  30007                       0          0         
  30007                       0.5        9         
  30007                       1.1        0         
  30007                       3          0         

[REPORT]
INPUT      NO
CONTROLS   NO
SUBCATCHMENTS ALL
NODES ALL
LINKS ALL

[TAGS]

[MAP]
 DIMENSIONS      0.00             0.00             10000.00         10000.00        
 UNITS           None

[COORDINATES]
;;Node             X-Coord          Y-Coord
  30001            1180.40          9131.40         
  30002            1224.94          7728.29         
  30003            1425.39          6013.36         
  30004            3897.55          8307.35         
  30005            3897.55          6525.61         
  30006            3897.55          5211.58         
  30007            5567.93          6102.45         
  30081            5946.55          3897.55         
  30082            3006.68          2761.69         
  30083            712.69           824.05          

[VERTICES]
;;Link             X-Coord          Y-Coord

[LABELS]
;;X-Coord          Y-Coord          Label
  4540.71          1565.76          "EXTRAN EXAMPLE 8"  ""  "Arial"  12  1  1
