[TITLE]
Example 6 of Extran Manual -
Type 1 Pump

[OPTIONS]
 FLOW_UNITS            CFS
 INFILTRATION          HORTON
 FLOW_ROUTING          DYNWAVE
 START_DATE            01/01/2002
 START_TIME            00:00:00
 REPORT_START_DATE     01/01/2002
 REPORT_START_TIME     00:00:00
 END_DATE              01/01/2002
 END_TIME              08:00:00
 SWEEP_START           01/01
 SWEEP_END             12/31
 DRY_DAYS              0
 REPORT_STEP           00:15:00
 WET_STEP              00:15:00
 DRY_STEP              01:00:00
 ROUTING_STEP          0:00:20 
 ALLOW_PONDING         NO
 INERTIAL_DAMPING      NONE
 VARIABLE_STEP         0.00
 LENGTHENING_STEP      0
 MIN_SURFAREA          0
 NORMAL_FLOW_LIMITED   BOTH
 SKIP_STEADY_STATE     NO
 THREADS               1


[JUNCTIONS]
;;                 Invert     Max.       Init.      Surcharge  Ponded    
;;Name             Elev.      Depth      Depth      Depth      Area      
;;------------------------------------------------------------------------
  80408            124.6      13.4       0          0          0         
  80608            118.3      16.7       0          0          0         
  81009            128.2      8.8        0          0          0         
  81309            117.5      12.5       0          0          0         
  82309            112.3      42.7       0          0          0         
  10309            101.6      9.4        0          0          0         
  15009            111.5      13.5       0          0          0         
  16009            102        18         0          0          0         
  16109            102.8      22.2       0          0          0         
  82310            73.6       42.7       2.135      0          0         

[OUTFALLS]
;;                 Invert     Outfall    Stage/Table      Tide
;;Name             Elev.      Type       Time Series      Gate
;;------------------------------------------------------------
  10208            89.9       FREE                        NO

[CONDUITS]
;;                 Inlet            Outlet                      Manning    Inlet      Outlet     Init.      Maximum
;;Name             Node             Node             Length     N          Height     Height     Flow       Flow
;;------------------------------------------------------------------------------------------------------------------------
  8040             80408            80608            1800       0.015      0          0          0          0         
  8060             80608            82309            2075       0.015      0          2.2        0          0         
  8100             81009            81309            5100       0.015      0          0          0          0         
  8130             81309            15009            3500       0.015      0          0          0          0         
  1030             10309            10208            4500       0.016      0          0          0          0         
  1570             15009            16009            5000       0.0154     0          0          0          0         
  1600             16109            16009            500        0.015      0          0          0          0         
  1630             16009            10309            300        0.015      0          0          0          0         
  1602             82309            16109            5000       0.034      0          0          0          0         
  8061             82309            82310            300        0.004      0          38.7       0          0         

[PUMPS]
;;                 Inlet            Outlet           Pump             Initial
;;Name             Node             Node             Curve            Status 
;;---------------------------------------------------------------------------
  90011            82310            15009            Curve1           ON    

[XSECTIONS]
;;Link             Type         Geom1      Geom2      Geom3      Geom4      Barrels
;;---------------------------------------------------------------------------------
  8040             CIRCULAR     4          0          0          0          1         
  8060             CIRCULAR     4          0          0          0          1         
  8100             CIRCULAR     4.5        0          0          0          1         
  8130             CIRCULAR     4.5        0          0          0          1         
  1030             TRAPEZOIDAL  9          0          3          3          1         
  1570             CIRCULAR     5.5        0          0          0          1         
  1600             CIRCULAR     6          0          0          0          1         
  1630             TRAPEZOIDAL  9          0          3          3          1         
  1602             CIRCULAR     5          0          0          0          1         
  8061             CIRCULAR     4          0          0          0          1         

[INFLOWS]
;;                                                   Concen   Conversion
;;Node             Parameter        Time Series      /Mass    Factor    
;;----------------------------------------------------------------------
  80408            FLOW             80408                             
  81009            FLOW             81009                             
  82309            FLOW             82309                             

[CURVES]
;;Name             Type       X-Value    Y-Value   
;;-------------------------------------------------
  Curve1           Pump1      200        5         
  Curve1                      600        10        
  Curve1                      1200       20        

[TIMESERIES]
;;Name             Date       Time       Value     
;;-------------------------------------------------
  82309                       0          0         
  82309                       0.25       40        
  82309                       3.0        40        
  82309                       3.25       0         
  82309                       12.0       0         

  80408                       0          0         
  80408                       0.25       45        
  80408                       3.0        45        
  80408                       3.25       0         
  80408                       12         0         

  81009                       0          0         
  81009                       0.25       50        
  81009                       3.0        50        
  81009                       3.25       0         
  81009                       12         0         

[REPORT]
INPUT      NO
CONTROLS   NO
SUBCATCHMENTS ALL
NODES ALL
LINKS ALL

[TAGS]

[MAP]
 DIMENSIONS      0.000            0.000            10000.000        10000.000       
 UNITS           None

[COORDINATES]
;;Node             X-Coord          Y-Coord
  80408            10115.790        7536.840        
  80608            7463.160         7536.840        
  81009            9989.470         2421.050        
  81309            7568.420         2421.050        
  82309            4957.890         7536.840        
  10309            389.470          2421.050        
  15009            4960.443         2420.886        
  16009            2494.740         2421.050        
  16109            2494.740         7536.840        
  82310            4947.810         5845.510        
  10208            -578.950         4947.370        

[VERTICES]
;;Link             X-Coord          Y-Coord

[LABELS]
;;X-Coord          Y-Coord          Label
  2431.580         1052.630         "EXAMPLE 6 OF EXTRAN MANUAL"  ""  "Arial"  12  1  1
  9801.670         8225.470         "Inflow"  ""  "Arial"  12  0  0
  4596.519         8212.025         "Inflow"  ""  "Arial"  12  0  0
  9694.740         2084.210         "Inflow"  ""  "Arial"  12  0  0

