[TITLE]
 Example 9 of Extran Users Manual -
 Detention Pond Routing

[OPTIONS]
 FLOW_UNITS            CMS
 INFILTRATION          HORTON
 FLOW_ROUTING          DYNWAVE
 START_DATE            04/11/2005
 START_TIME            00:00:00
 REPORT_START_DATE     04/11/2005
 REPORT_START_TIME     00:00:00
 END_DATE              04/11/2005
 END_TIME              10:00:00
 SWEEP_START           01/01
 SWEEP_END             12/31
 DRY_DAYS              0
 REPORT_STEP           00:15:00
 WET_STEP              00:15:00
 DRY_STEP              01:00:00
 ROUTING_STEP          0:05:00 
 ALLOW_PONDING         NO
 INERTIAL_DAMPING      NONE
 VARIABLE_STEP         0.00
 LENGTHENING_STEP      0
 MIN_SURFAREA          0
 NORMAL_FLOW_LIMITED   BOTH
 SKIP_STEADY_STATE     NO
 THREADS               1
 
[OUTFALLS]
;;                 Invert     Outfall    Stage/Table      Tide
;;Name             Elev.      Type       Time Series      Gate
;;------------------------------------------------------------
  30002            -1         FREE                        NO

[STORAGE]
;;                 Invert   Max.     Init.    Shape      Shape                      Ponded   Evap.
;;Name             Elev.    Depth    Depth    Curve      Parameters                 Area     Frac.
;;------------------------------------------------------------------------------------------------
  30001            0        10       0.5      TABULAR    Curve1                     0        0       

[ORIFICES]
;;                 Inlet            Outlet                        Invert     Disch.     Flap 
;;Name             Node             Node             Type         Height     Coeff.     Gate 
;;-------------------------------------------------------------------------------------------
  90001            30001            30002            SIDE         0          0.9        NO  

[XSECTIONS]
;;Link             Type         Geom1      Geom2      Geom3      Geom4      Barrels
;;---------------------------------------------------------------------------------
  90001            CIRCULAR     0.225      0          0          0

[INFLOWS]
;;                                                   Concen   Conversion
;;Node             Parameter        Time Series      /Mass    Factor    
;;----------------------------------------------------------------------
  30001            FLOW             INFLOW                            

[CURVES]
;;Name             Type       X-Value    Y-Value   
;;-------------------------------------------------
  Curve1           Storage    0.0        130       
  Curve1                      .2         246       
  Curve1                      .5         340       
  Curve1                      .8         400       
  Curve1                      1          530       
  Curve1                      1.5        650       
  Curve1                      2          760       
  Curve1                      2.5        860       
  Curve1                      3          960       
  Curve1                      3.5        1060      
  Curve1                      4          1146.33   
  Curve1                      4.5        1234.07   
  Curve1                      5          1319.21   
  Curve1                      5.5        1400      
  Curve1                      6          1480      
  Curve1                      6.5        1560      
  Curve1                      7          1640      
  Curve1                      7.5        1710      
  Curve1                      8          1790      
  Curve1                      8.5        1860      
  Curve1                      9          1930      
  Curve1                      9.5        2000      
  Curve1                      10         2000      

[TIMESERIES]
;;Name             Date       Time       Value     
;;-------------------------------------------------
  INFLOW                      0          0         
  INFLOW                      2          1.2       
  INFLOW                      5          0         
  INFLOW                      10         0         

[REPORT]
INPUT      NO
CONTROLS   NO
SUBCATCHMENTS ALL
NODES ALL
LINKS ALL

[TAGS]

[MAP]
 DIMENSIONS      0.00             0.00             10000.00         10000.00        
 UNITS           None

[COORDINATES]
;;Node             X-Coord          Y-Coord
  30002            6743.22          5887.27         
  30001            2338.20          6346.56         

[VERTICES]
;;Link             X-Coord          Y-Coord

[LABELS]
;;X-Coord          Y-Coord          Label
  137.93           6586.21          "Inflow"  ""  "Arial"  10  0  0
  1862.07          3827.59          "EXTRAN EXAMPLE 9"  ""  "Arial"  12  1  0
