[TITLE]
 Example 10 of Extran Manual -
 Type 3 Pumps

[OPTIONS]
 FLOW_UNITS            CFS
 INFILTRATION          HORTON
 FLOW_ROUTING          DYNWAVE
 START_DATE            04/11/2005
 START_TIME            00:00:00
 REPORT_START_DATE     04/11/2005
 REPORT_START_TIME     00:00:00
 END_DATE              04/11/2005
 END_TIME              05:00:00
 SWEEP_START           01/01
 SWEEP_END             12/31
 DRY_DAYS              0
 REPORT_STEP           00:10:00
 WET_STEP              00:15:00
 DRY_STEP              01:00:00
 ROUTING_STEP          0:01:00 
 ALLOW_PONDING         NO
 INERTIAL_DAMPING      NONE
 VARIABLE_STEP         0.00
 LENGTHENING_STEP      0
 MIN_SURFAREA          0
 NORMAL_FLOW_LIMITED   BOTH
 SKIP_STEADY_STATE     NO
 THREADS               1

[OUTFALLS]
;;                 Invert     Outfall    Stage/Table      Tide
;;Name             Elev.      Type       Time Series      Gate
;;------------------------------------------------------------
  201              119.9      FREE                        NO

[STORAGE]
;;                 Invert   Max.     Init.    Shape      Shape                      Ponded   Evap.
;;Name             Elev.    Depth    Depth    Curve      Parameters                 Area     Frac.
;;------------------------------------------------------------------------------------------------
  401              50       50       1        FUNCTIONAL 0        0        2000     0        0       
  301              100      50       1        FUNCTIONAL 0        0        2000     0        0       

[CONDUITS]
;;                 Inlet            Outlet                      Manning    Inlet      Outlet     Init.      Maximum
;;Name             Node             Node             Length     N          Height     Height     Flow       Flow
;;------------------------------------------------------------------------------------------------------------------------
  100              301              201              1000       0.015      20         0          0          0         

[PUMPS]
;;                 Inlet            Outlet           Pump             Initial
;;Name             Node             Node             Curve            Status 
;;---------------------------------------------------------------------------
  90002            401              301              PumpCurve        OFF   
  90003            401              301              PumpCurve        OFF   
  90004            401              301              PumpCurve        OFF   
  90005            401              301              PumpCurve        OFF   
  90006            401              301              PumpCurve        OFF   

[XSECTIONS]
;;Link             Type         Geom1      Geom2      Geom3      Geom4      Barrels
;;---------------------------------------------------------------------------------
  100              CIRCULAR     4          0          0          0          1         

[CONTROLS]
RULE 90002A
IF NODE 401 DEPTH >= 6
AND PUMP 90002 STATUS = OFF
THEN PUMP 90002 STATUS = ON

RULE 90002B
IF NODE 401 DEPTH <= 2
AND PUMP 90002 STATUS = ON
THEN PUMP 90002 STATUS = OFF

RULE 90003A
IF NODE 401 DEPTH >= 7
AND PUMP 90003 STATUS = OFF
THEN PUMP 90003 STATUS = ON

RULE 90003B
IF NODE 401 DEPTH <= 3
AND PUMP 90003 STATUS = ON
THEN PUMP 90003 STATUS = OFF

RULE 90004A
IF NODE 401 DEPTH >= 8
AND PUMP 90004 STATUS = OFF
THEN PUMP 90004 STATUS = ON

RULE 90004B
IF NODE 401 DEPTH <= 4
AND PUMP 90004 STATUS = ON
THEN PUMP 90004 STATUS = OFF

RULE 90005A
IF NODE 401 DEPTH >= 9
AND PUMP 90005 STATUS = OFF
THEN PUMP 90005 STATUS = ON

RULE 90005B
IF NODE 401 DEPTH <= 5
AND PUMP 90005 STATUS = ON
THEN PUMP 90005 STATUS = OFF

RULE 90006A
IF NODE 401 DEPTH >= 10
AND PUMP 90006 STATUS = OFF
THEN PUMP 90006 STATUS = ON

RULE 90006B
IF NODE 401 DEPTH <= 6
AND PUMP 90006 STATUS = ON
THEN PUMP 90006 STATUS = OFF

[INFLOWS]
;;                                                   Concen   Conversion
;;Node             Parameter        Time Series      /Mass    Factor    
;;----------------------------------------------------------------------
  401              FLOW             INFLOW                            

[CURVES]
;;Name             Type       X-Value    Y-Value   
;;-------------------------------------------------
  PumpCurve        Pump3      50         100       
  PumpCurve                   60         50        
  PumpCurve                   70         10        

[TIMESERIES]
;;Name             Date       Time       Value     
;;-------------------------------------------------
  INFLOW                      0          0         
  INFLOW                      0.5        50        
  INFLOW                      1          100       
  INFLOW                      5          100       

[REPORT]
INPUT      NO
CONTROLS   YES
SUBCATCHMENTS ALL
NODES ALL
LINKS ALL

[TAGS]

[MAP]
 DIMENSIONS      0.00             0.00             10000.00         10000.00        
 UNITS           None

[COORDINATES]
;;Node             X-Coord          Y-Coord
  201              9394.57          6242.17         
  401              1691.02          3465.55         
  301              5887.27          6242.17         

[VERTICES]
;;Link             X-Coord          Y-Coord
  90002            1649.27          6075.16         
  90002            4279.75          6096.03         
  90003            1670.15          5365.34         
  90003            4488.52          5427.97         
  90004            1691.02          4697.29         
  90004            4572.03          4739.04         
  90005            1691.02          4133.61         
  90005            4655.53          4217.12         
  90006            4739.04          3569.94         
