[TITLE]
 Example 3
 Use of Rule-Based Pump Controls
 and Dry Weather Flow Patterns

[OPTIONS]
 FLOW_UNITS            CFS
 INFILTRATION          HORTON
 FLOW_ROUTING          DW
 START_DATE            01/01/2001
 START_TIME            00:00:00
 REPORT_START_DATE     01/01/2001
 REPORT_START_TIME     00:00:00
 END_DATE              01/02/2001
 END_TIME              00:00:00
 DRY_DAYS              0
 WET_STEP              00:15:00
 DRY_STEP              01:00:00
 ROUTING_STEP          00:00:20
 REPORT_STEP           00:05:00
 ALLOW_PONDING         NO
 INERTIAL_DAMPING      PARTIAL
 VARIABLE_STEP         0.75
 LENGTHENING_STEP      0
 MIN_SURFAREA          0
 COMPATIBILITY         5
 THREADS               1
 
[JUNCTIONS]
;;                 Invert     Max.       Init.      Surcharge  Ponded    
;;Name             Elev.      Depth      Depth      Depth      Area      
;;------------------------------------------------------------------------
  KRO3001          556.19     10         0          0          0         
  KRO6015          585.98     8          0          0          0         
  KRO6016          584.14     9          0          0          0         
  KRO6017          582.01     14         0          0          0         
  KRO1002          594.89     3          0          0          0         
  KRO1003          594.73     5          0          0          0         
  KRO1004          588.09     8          0          0          0         
  KRO1005          579.40     16         0          0          0         
  KRO1006          602.48     7          0          0          0         
  KRO1007          596.76     15         0          0          0         
  KRO1008          593.58     12         0          0          0         
  KRO1009          590.56     15         0          0          0         
  KRO1010          584.82     11         0          0          0         
  KRO1012          584.25     10         0          0          0         
  KRO1013          591.58     14         0          0          0         
  KRO1014          592.41     6          0          0          0         
  KRO1015          586.69     10         0          0          0         
  KRO2001          576.29     8          0          0          0         
  KRO4004          587.39     11         0          0          0         
  KRO4008          583.48     10         0          0          0         
  KRO4009          581.68     8          0          0          0         
  KRO4010          579.88     12         0          0          0         
  KRO4011          578.43     10         0          0          0         
  KRO4012          564.71     10         0          0          0         
  KRO4013          567.88     12         0          0          0         
  KRO4014          573.18     14         0          0          0         
  KRO4015          563.71     10         0          0          0         
  KRO4016          563.24     10         0          0          0         
  KRO4017          558.36     10         0          0          0         
  KRO4018          556.02     9          0          0          0         
  KRO4019          552.42     10         0          0          0         

[OUTFALLS]
;;                 Invert     Outfall      Stage/Table
;;Name             Elev.      Type         Time Series
;;----------------------------------------------------
  KRO2005          574.32     FREE       NO
  PSO              548.36     FREE       NO

[STORAGE]
;;                 Invert   Max.     Init.    Shape      Shape                      Ponded   Evap.
;;Name             Elev.    Depth    Depth    Curve      Parameters                 Area     Frac.
;;------------------------------------------------------------------------------------------------
  SU1              544.74   17       0        FUNCTIONAL 12.566   0        0        0        0        ;4' diameter wet well

[CONDUITS]
;;                 Inlet            Outlet                      Manning    Inlet      Outlet     Init.
;;Name             Node             Node             Length     N          Height     Height     Flow
;;------------------------------------------------------------------------------------------------------------
  KRO3001-KRO3002  KRO3001          SU1              176.7171053 0.013      0          5          0         
  SU1-PSO          SU1              PSO              65.78947368 0.013      6          0          0          ;Pump Station
  KRO1002-KRO1003  KRO1002          KRO1003          27.23684211 0.013      0          0          0         
  KRO1003-KRO1008  KRO1003          KRO1008          197.7236842 0.013      0          0          0         
  KRO1004-KRO6016  KRO1004          KRO6016          197.4144737 0.013      0          0          0         
  KRO1005-KRO2001  KRO1005          KRO2001          134.3092105 0.013      0          0          0         
  KRO1006-KRO1007  KRO1006          KRO1007          162.5921053 0.013      0          0          0         
  KRO1007-KRO1008  KRO1007          KRO1008          165.8881579 0.013      0          0          0         
  KRO1008-KRO1009  KRO1008          KRO1009          157.3223684 0.013      0          0          0         
  KRO1009-KRO1010  KRO1009          KRO1010          210.9539474 0.013      0          0          0         
  KRO1010-KRO2001  KRO1010          KRO2001          190.1842105 0.013      0          0          0         
  KRO1012-KRO4009  KRO1012          KRO4009          128.2631579 0.013      0          0          0         
  KRO1013-KRO1009  KRO1013          KRO1009          170.1052632 0.013      0          0          0         
  KRO1014-KRO1013  KRO1014          KRO1013          500        0.013      0          0          0         
  KRO1015-KRO4014  KRO1015          KRO4014          151.4342105 0.013      0          0          0         
  KRO2001-KRO2005  KRO2001          KRO2005          243.7631579 0.013      0          0          0         
  KRO4004-KRO4008  KRO4004          KRO4008          140        0.013      0          0          0         
  KRO4008-KRO4011  KRO4008          KRO4011          78.72368421 0.013      0          0          0         
  KRO4009-KRO4010  KRO4009          KRO4010          180.0526316 0.013      0          0          0         
  KRO4010-KRO4011  KRO4010          KRO4011          144.5328947 0.013      0          0          0         
  KRO4011-KRO4012  KRO4011          KRO4012          198.0723684 0.013      0          0          0         
  KRO4012-KRO3001  KRO4012          KRO3001          129.0526316 0.013      0          0.5        0         
  KRO4013-KRO4017  KRO4013          KRO4017          176.5394737 0.013      0          0          0         
  KRO4014-KRO4015  KRO4014          KRO4015          138.7039474 0.013      0          0          0         
  KRO4015-KRO4016  KRO4015          KRO4016          16.95394737 0.013      0          0          0         
  KRO4016-KRO4017  KRO4016          KRO4017          108.7697368 0.013      0          0          0         
  KRO4017-KRO4018  KRO4017          KRO4018          101.5592105 0.013      0          0          0         
  KRO4018-KRO4019  KRO4018          KRO4019          159.8486842 0.013      0          0          0         
  KRO4019-KRO3002  KRO4019          SU1              87.57894737 0.013      0          5          0         
  KRO6015-KRO6016  KRO6015          KRO6016          91.85526316 0.013      0          0          0         
  KRO6016-KRO6017  KRO6016          KRO6017          211.9736842 0.013      0          0          0         
  KRO6017-KRO1005  KRO6017          KRO1005          178.8092105 0.013      0          0          0         

[PUMPS]
;;                 Inlet            Outlet           Pump             Initial
;;Name             Node             Node             Curve            Status 
;;---------------------------------------------------------------------------
  PUMP1            SU1              KRO1014          PUMP_CURVE1      ON    

[XSECTIONS]
;;Link             Type         Geom1      Geom2      Geom3      Geom4      Barrels
;;---------------------------------------------------------------------------------
  KRO3001-KRO3002  CIRCULAR     1          0          0          0          1         
  SU1-PSO          CIRCULAR     1          0          0          0          1         
  KRO1002-KRO1003  CIRCULAR     1          0          0          0          1         
  KRO1003-KRO1008  CIRCULAR     1          0          0          0          1         
  KRO1004-KRO6016  CIRCULAR     1          0          0          0          1         
  KRO1005-KRO2001  CIRCULAR     1          0          0          0          1         
  KRO1006-KRO1007  CIRCULAR     1          0          0          0          1         
  KRO1007-KRO1008  CIRCULAR     1          0          0          0          1         
  KRO1008-KRO1009  CIRCULAR     1          0          0          0          1         
  KRO1009-KRO1010  CIRCULAR     1          0          0          0          1         
  KRO1010-KRO2001  CIRCULAR     1          0          0          0          1         
  KRO1012-KRO4009  CIRCULAR     1          0          0          0          1         
  KRO1013-KRO1009  CIRCULAR     1          0          0          0          1         
  KRO1014-KRO1013  CIRCULAR     1          0          0          0          1         
  KRO1015-KRO4014  CIRCULAR     1          0          0          0          1         
  KRO2001-KRO2005  CIRCULAR     1          0          0          0          1         
  KRO4004-KRO4008  CIRCULAR     1          0          0          0          1         
  KRO4008-KRO4011  CIRCULAR     1          0          0          0          1         
  KRO4009-KRO4010  CIRCULAR     1          0          0          0          1         
  KRO4010-KRO4011  CIRCULAR     1          0          0          0          1         
  KRO4011-KRO4012  CIRCULAR     1          0          0          0          1         
  KRO4012-KRO3001  CIRCULAR     1          0          0          0          1         
  KRO4013-KRO4017  CIRCULAR     1          0          0          0          1         
  KRO4014-KRO4015  CIRCULAR     1          0          0          0          1         
  KRO4015-KRO4016  CIRCULAR     1          0          0          0          1         
  KRO4016-KRO4017  CIRCULAR     1          0          0          0          1         
  KRO4017-KRO4018  CIRCULAR     1          0          0          0          1         
  KRO4018-KRO4019  CIRCULAR     1          0          0          0          1         
  KRO4019-KRO3002  CIRCULAR     1          0          0          0          1         
  KRO6015-KRO6016  CIRCULAR     1          0          0          0          1         
  KRO6016-KRO6017  CIRCULAR     1          0          0          0          1         
  KRO6017-KRO1005  CIRCULAR     1          0          0          0          1         

[CONTROLS]
RULE PUMP1A
IF NODE SU1 DEPTH >= 4
THEN PUMP PUMP1 status = ON
PRIORITY 1

RULE PUMP1B
IF NODE SU1 DEPTH < 1
THEN PUMP PUMP1 status = OFF
PRIORITY 1




[DWF]
;;                                  Average    Time
;;Node             Parameter        Value      Patterns
;;-----------------------------------------------------
  KRO3001          FLOW             1          "" "" "DWF" "" "" "" ""
  KRO6015          FLOW             1          "" "" "DWF" "" "" "" ""
  KRO6016          FLOW             1          "" "" "DWF" "" "" "" ""
  KRO6017          FLOW             1          "" "" "DWF" "" "" "" ""
  KRO1002          FLOW             1          "" "" "DWF" "" "" "" ""
  KRO1003          FLOW             1          "" "" "DWF" "" "" "" ""
  KRO1004          FLOW             1          "" "" "DWF" "" "" "" ""
  KRO1005          FLOW             1          "" "" "DWF" "" "" "" ""
  KRO1006          FLOW             1          "" "" "DWF" "" "" "" ""
  KRO1007          FLOW             1          "" "" "DWF" "" "" "" ""
  KRO1008          FLOW             1          "" "" "DWF" "" "" "" ""
  KRO1009          FLOW             1          "" "" "DWF" "" "" "" ""
  KRO1010          FLOW             1          "" "" "DWF" "" "" "" ""
  KRO1012          FLOW             1          "" "" "DWF" "" "" "" ""
  KRO1013          FLOW             1          "" "" "DWF" "" "" "" ""
  KRO1015          FLOW             1          "" "" "DWF" "" "" "" ""
  KRO2001          FLOW             1          "" "" "DWF" "" "" "" ""
  KRO4004          FLOW             1          "" "" "DWF" "" "" "" ""
  KRO4008          FLOW             1          "" "" "DWF" "" "" "" ""
  KRO4009          FLOW             1          "" "" "DWF" "" "" "" ""
  KRO4010          FLOW             1          "" "" "DWF" "" "" "" ""
  KRO4011          FLOW             1          "" "" "DWF" "" "" "" ""
  KRO4012          FLOW             1          "" "" "DWF" "" "" "" ""
  KRO4013          FLOW             1          "" "" "DWF" "" "" "" ""
  KRO4014          FLOW             1          "" "" "DWF" "" "" "" ""
  KRO4015          FLOW             1          "" "" "DWF" "" "" "" ""
  KRO4017          FLOW             1          "" "" "DWF" "" "" "" ""
  KRO4018          FLOW             1          "" "" "DWF" "" "" "" ""
  KRO4019          FLOW             1          "" "" "DWF" "" "" "" ""
  SU1              FLOW             1          "" "" "DWF" "" "" "" ""

[CURVES]
;;Name             Type       X-Value    Y-Value   
;;-------------------------------------------------
  PUMP_CURVE1      PUMP4      0          0.45      
  PUMP_CURVE1                 4          0.45      
  PUMP_CURVE1                 4.75       0.9       

[PATTERNS]
;;Name             Type       Multipliers
;;----------------------------------------------------------------------
  DWF              HOURLY     .0151 .01373 .01812 .01098 .01098 .01922
  DWF                         .02773 .03789 .03515 .03982 .02059 .02471
  DWF                         .03021 .03789 .03350 .03158 .03954 .02114
  DWF                         .02801 .03680 .02911 .02334 .02499 .02718

[REPORT]
  INPUT      NO
  CONTROLS   YES
  SUBCATCHMENTS ALL
  NODES ALL
  LINKS ALL

[COORDINATES]
;;Node             X-Coord          Y-Coord
  KRO3001          1362408.25       431113.81       
  KRO6015          1362748.63       428675.19       
  KRO6016          1362767.00       428813.59       
  KRO6017          1363087.25       428778.19       
  KRO1002          1362361.78       429189.37       
  KRO1003          1362367.00       429230.44       
  KRO1004          1362860.25       429098.81       
  KRO1005          1363142.00       429044.41       
  KRO1006          1361937.38       429699.81       
  KRO1007          1362171.00       429619.19       
  KRO1008          1362406.25       429528.41       
  KRO1009          1362629.00       429441.41       
  KRO1010          1362927.63       429324.59       
  KRO1012          1362287.63       429934.41       
  KRO1013          1362657.38       429698.41       
  KRO1014          1362655.01       430868.66       
  KRO1015          1362725.75       429953.81       
  KRO2001          1363203.75       429239.00       
  KRO4004          1362024.63       430653.19       
  KRO4008          1362236.38       430632.00       
  KRO4009          1362307.00       430128.41       
  KRO4010          1362333.38       430400.81       
  KRO4011          1362355.38       430619.41       
  KRO4012          1362385.25       430919.00       
  KRO4013          1362511.75       430605.81       
  KRO4014          1362751.19       430182.59       
  KRO4015          1362774.00       430392.19       
  KRO4016          1362761.25       430414.59       
  KRO4017          1362778.75       430579.00       
  KRO4018          1362796.00       430732.41       
  KRO4019          1362704.75       430957.59       
  KRO2005          1363557.75       429129.59       
  PSO              1362670.63       431107.00       
  SU1              1362652.04       431078.91       

[VERTICES]
;;Link             X-Coord          Y-Coord

[LABELS]
;;X-Coord          Y-Coord          Label
  1362744.75       431134.09        "Regulator Point"  PSO  "Arial"  10  0  0

[BACKDROP]
 DIMENSIONS      1361856.36       428553.26        1363638.77       431235.74       
 UNITS           None
 FILE            ""
 OFFSET          0.00             0.00            
 SCALING         0.00             0.00            
