[TITLE]
TEST3
DROP WITH SURCHARGE EXAMPLE

[OPTIONS]
 FLOW_UNITS            CFS
 INFILTRATION          HORTON
 FLOW_ROUTING          DYNWAVE
 START_DATE            01/01/1988
 START_TIME            00:00:00
 REPORT_START_DATE     01/01/1988
 REPORT_START_TIME     00:00:00
 END_DATE              01/01/1988
 END_TIME              06:00:00
 SWEEP_START           01/01
 SWEEP_END             12/31
 DRY_DAYS              0
 REPORT_STEP           00:00:30
 WET_STEP              00:15:00
 DRY_STEP              01:00:00
 ROUTING_STEP          0:00:05 
 ALLOW_PONDING         NO
 INERTIAL_DAMPING      NONE
 VARIABLE_STEP         0.00
 LENGTHENING_STEP      0
 MIN_SURFAREA          0
 NORMAL_FLOW_LIMITED   BOTH
 SKIP_STEADY_STATE     NO

[JUNCTIONS]
;;                 Invert     Max.       Init.      Surcharge  Ponded    
;;Name             Elev.      Depth      Depth      Depth      Area      
;;------------------------------------------------------------------------
  1                118.00     64         .00        .00        0         
  2                117.50     65.5       .00        .00        0         
  3                117.00     66         .00        .00        0         
  4                116.50     67.5       .00        .00        0         
  5                116.00     68         .00        .00        0         
  6                115.50     69.5       .00        .00        0         
  7                82.20      53.4       .00        .00        0         
  8                81.70      36.6       .00        .00        0         
  9                81.20      38.1       .00        .00        0         
  10               80.70      38.6       .00        .00        0         
  11               80.20      40.1       .00        .00        0         
  12               79.70      40.6       .00        .00        0         

[OUTFALLS]
;;                 Invert     Outfall    Stage/Table      Tide
;;Name             Elev.      Type       Time Series      Gate
;;------------------------------------------------------------
  13               79.2       FREE                        NO

[CONDUITS]
;;                 Inlet            Outlet                      Manning    Inlet      Outlet     Init.      Maximum
;;Name             Node             Node             Length     N          Height     Height     Flow       Flow
;;------------------------------------------------------------------------------------------------------------------------
  101              1                2                500        0.013      0          0          0          0         
  102              2                3                500        0.013      0          0          0          0         
  103              3                4                500        0.013      0          0          0          0         
  104              4                5                500        0.013      0          0          0          0         
  105              5                6                500        0.013      0          0          0          0         
  106              6                7                500        0.013      0          32.8       0          0         
  107              7                8                500        0.013      0          0          0          0         
  108              8                9                500        0.013      0          0          0          0         
  109              9                10               500        0.013      0          0          0          0         
  110              10               11               500        0.013      0          0          0          0         
  111              11               12               500        0.013      0          0          0          0         
  112              12               13               500        0.013      0          0          0          0         

[XSECTIONS]
;;Link             Type         Geom1      Geom2      Geom3      Geom4      Barrels
;;---------------------------------------------------------------------------------
  101              CIRCULAR     6          0          0          0          1         
  102              CIRCULAR     6          0          0          0          1         
  103              CIRCULAR     6          0          0          0          1         
  104              CIRCULAR     6          0          0          0          1         
  105              CIRCULAR     6          0          0          0          1         
  106              CIRCULAR     6          0          0          0          1         
  107              CIRCULAR     3          0          0          0          1         
  108              CIRCULAR     3          0          0          0          1         
  109              CIRCULAR     3          0          0          0          1         
  110              CIRCULAR     3          0          0          0          1         
  111              CIRCULAR     3          0          0          0          1         
  112              CIRCULAR     3          0          0          0          1         

[INFLOWS]
;;                                                   Concen   Conversion
;;Node             Parameter        Time Series      /Mass    Factor    
;;----------------------------------------------------------------------
  1                FLOW             FLOW@1                            

[TIMESERIES]
;;Name             Date       Time       Value     
;;-------------------------------------------------
  FLOW@1           01/01/1988 00:00      0.00000   
  FLOW@1                      00:15      28.00000  
  FLOW@1                      00:55      108.00000 
  FLOW@1                      01:35      108.00000 
  FLOW@1                      02:55      28.00000  
  FLOW@1           01/01/1988 6          28.00000  

[REPORT]
INPUT      NO
CONTROLS   NO
SUBCATCHMENTS ALL
NODES ALL
LINKS ALL

[TAGS]

[MAP]
 DIMENSIONS      700.000          1940.000         7300.000         3260.000        
 UNITS           None

[COORDINATES]
;;Node             X-Coord          Y-Coord
  1                1000.000         2000.000        
  2                1500.000         2100.000        
  3                2000.000         2200.000        
  4                2500.000         2300.000        
  5                3000.000         2400.000        
  6                3500.000         2500.000        
  7                4000.000         2600.000        
  8                4500.000         2700.000        
  9                5000.000         2800.000        
  10               5500.000         2900.000        
  11               6000.000         3000.000        
  12               6500.000         3100.000        
  13               7000.000         3200.000        

[VERTICES]
;;Link             X-Coord          Y-Coord
