[TITLE]
TEST2.DAT
FLOW THROUGH A CONSTRICTION

[OPTIONS]
FLOW_UNITS          	CFS
INFILTRATION        	HORTON
FLOW_ROUTING        	DYNWAVE
START_DATE          	01/01/1988
START_TIME          	00:00:00
REPORT_START_DATE   	01/01/1988
REPORT_START_TIME   	00:00:00
END_DATE            	01/01/1988
END_TIME            	06:00:00
SWEEP_START         	01/01
SWEEP_END           	12/31
DRY_DAYS            	0
REPORT_STEP         	00:00:30
WET_STEP            	00:15:00
DRY_STEP            	01:00:00
ROUTING_STEP        	0:00:05 
ALLOW_PONDING       	NO
INERTIAL_DAMPING    	NONE
VARIABLE_STEP       	0.00
LENGTHENING_STEP    	0
MIN_SURFAREA        	0
NORMAL_FLOW_LIMITED 	SLOPE
SKIP_STEADY_STATE   	NO
IGNORE_RAINFALL     	NO
FORCE_MAIN_EQUATION 	D-W
LINK_OFFSETS        	DEPTH

[JUNCTIONS]
;;              	Invert    	Max.      	Init.     	Surcharge 	Ponded    
;;Name          	Elev.     	Depth     	Depth     	Depth     	Area      
;;--------------	----------	----------	----------	----------	----------
1               	175.00    	65.00     	.00       	.00       	0         
2               	174.50    	65.50     	.00       	.00       	0         
3               	174.00    	64.00     	.00       	.00       	0         
4               	173.50    	44.50     	.00       	.00       	0         
5               	173.00    	13.00     	.00       	.00       	0         

[OUTFALLS]
;;              	Invert    	Outfall   	Stage/Table     	Tide
;;Name          	Elev.     	Type      	Time Series     	Gate
;;--------------	----------	----------	----------------	----
6               	172.5     	FREE      	                	NO

[CONDUITS]
;;              	Inlet           	Outlet          	          	Manning   	Inlet     	Outlet    	Init.     	Max.      
;;Name          	Node            	Node            	Length    	N         	Offset    	Offset    	Flow      	Flow      
;;--------------	----------------	----------------	----------	----------	----------	----------	----------	----------
1               	1               	2               	1000      	0.02      	0         	0         	0         	0         
2               	2               	3               	1000      	0.02      	0         	0         	0         	0         
3               	3               	4               	1000      	0.02      	0         	0         	0         	0         
4               	4               	5               	1000      	0.02      	0         	0         	0         	0         
5               	5               	6               	1000      	0.02      	0         	0         	0         	0         

[XSECTIONS]
;;Link          	Shape       	Geom1           	Geom2     	Geom3     	Geom4     	Barrels   
;;--------------	------------	----------------	----------	----------	----------	----------
1               	CIRCULAR    	12              	0         	0         	0         	1         
2               	CIRCULAR    	3               	0         	0         	0         	1         
3               	CIRCULAR    	12              	0         	0         	0         	1         
4               	CIRCULAR    	3               	0         	0         	0         	1         
5               	CIRCULAR    	12              	0         	0         	0         	1         

[LOSSES]
;;Link          	Inlet     	Outlet    	Average   	Flap Gate 
;;--------------	----------	----------	----------	----------

[INFLOWS]
;;              	                	                	Param   	Units   	Scale   	Baseline
;;Node          	Parameter       	Time Series     	Type    	Factor  	Factor  	Value   
;;--------------	----------------	----------------	--------	--------	--------	--------
1               	FLOW            	FLOW@1          	FLOW    	1.0     	1.0     

[TIMESERIES]
;;Name          	Date      	Time      	Value     
;;--------------	----------	----------	----------
FLOW@1          	01/01/1988	00:00     	0.00000   
FLOW@1          	          	00:15     	50        
FLOW@1          	          	03:00     	50        
FLOW@1          	          	3:15      	0         
FLOW@1          	          	12:00     	0         

[REPORT]
INPUT      NO
CONTROLS   NO
SUBCATCHMENTS ALL
NODES ALL
LINKS ALL

[TAGS]

[MAP]
DIMENSIONS	750.000	945.000	6250.000	1055.000
Units     	None

[COORDINATES]
;;Node          	X-Coord           	Y-Coord           
;;--------------	------------------	------------------
1               	1000.000          	1000.000          
2               	2000.000          	1000.000          
3               	3000.000          	1000.000          
4               	4000.000          	1000.000          
5               	5000.000          	1000.000          
6               	6021.590          	1022.840          

[VERTICES]
;;Link          	X-Coord           	Y-Coord           
;;--------------	------------------	------------------

