[TITLE]
;;Project Title/Notes

[OPTIONS]
;;Option            	Value
FLOW_UNITS          	CFS
INFILTRATION        	GREEN_AMPT
FLOW_ROUTING        	DYNWAVE
LINK_OFFSETS        	DEPTH
MIN_SLOPE           	0
ALLOW_PONDING       	YES
SKIP_STEADY_STATE   	NO

START_DATE          	01/01/2000
START_TIME          	00:00:00
REPORT_START_DATE   	01/01/2000
REPORT_START_TIME   	00:00:00
END_DATE            	01/01/2000
END_TIME            	06:00:00
SWEEP_START         	1/1
SWEEP_END           	1/1
DRY_DAYS            	0
REPORT_STEP         	00:15:00
WET_STEP            	00:15:00
DRY_STEP            	01:00:00
ROUTING_STEP        	0:00:01 

INERTIAL_DAMPING    	NONE
NORMAL_FLOW_LIMITED 	BOTH
FORCE_MAIN_EQUATION 	H-W
VARIABLE_STEP       	0.00
LENGTHENING_STEP    	0
MIN_SURFAREA        	0
MAX_TRIALS          	8
HEAD_TOLERANCE      	0.005
SYS_FLOW_TOL        	5
LAT_FLOW_TOL        	5
MINIMUM_STEP        	0.5
THREADS             	1

[EVAPORATION]
;;Data Source   	Parameters
;;--------------	----------------
CONSTANT        	0.0
DRY_ONLY        	NO

[RAINGAGES]
;;Name          	Format   	Interval	SCF     	Source    
;;--------------	---------	------	------	----------
38_Rain-Gage    	INTENSITY	00:12:00	1.0     	TIMESERIES	Rain-Gage       
1               	INTENSITY	1:00    	1.0     	TIMESERIES	NORAIN          

[SUBCATCHMENTS]
;;Name          	Rain Gage       	Outlet          	Area    	%Imperv 	Width   	%Slope  	CurbLen 	SnowPack        
;;--------------	----------------	----------------	--------	--------	--------	--------	--------	----------------
CM-1            	38_Rain-Gage    	MH-1            	10      	25      	30      	10      	0       	                
CM-2            	1               	MH-3            	5       	100     	40      	10      	0       	                

[SUBAREAS]
;;Subcatchment  	N-Imperv  	N-Perv    	S-Imperv  	S-Perv    	PctZero   	RouteTo   	PctRouted 
;;--------------	----------	----------	----------	----------	----------	----------	----------
CM-1            	0.04      	0.1       	0.3       	0.3       	33        	OUTLET    
CM-2            	0         	0.12      	0.3       	0.2       	100       	OUTLET    

[INFILTRATION]
;;Subcatchment  	Suction   	Ksat      	IMD       
;;--------------	----------	----------	----------
CM-1            	3         	0.3       	45        
CM-2            	0.3       	1         	35        

[JUNCTIONS]
;;Name          	Elevation 	MaxDepth  	InitDepth 	SurDepth  	Aponded   
;;--------------	----------	----------	----------	----------	----------
MH-1            	107       	10        	0         	0         	0         
MH-2            	103       	10        	0         	0         	0         
MH-3            	100       	10        	0         	0         	0         

[OUTFALLS]
;;Name          	Elevation 	Type      	Stage Data      	Gated   	Route To        
;;--------------	----------	----------	----------------	--------	----------------
O-1             	100       	FREE      	                	NO      	CM-2            
O-2             	95        	FREE      	                	NO      	                

[CONDUITS]
;;Name          	From Node       	To Node         	Length    	Roughness 	InOffset  	OutOffset 	InitFlow  	MaxFlow   
;;--------------	----------------	----------------	----------	----------	----------	----------	----------	----------
CO-1            	MH-1            	MH-2            	61.6524160772572	0.013     	0         	0         	0         	0         
CO-2            	MH-2            	O-1             	46.974808707021	0.013     	0         	0         	0         	0         
CO-3            	MH-3            	O-2             	88.1108416039892	0.013     	0         	0         	0         	0         

[XSECTIONS]
;;Link          	Shape       	Geom1           	Geom2     	Geom3     	Geom4     	Barrels   	Culvert   
;;--------------	------------	----------------	----------	----------	----------	----------	----------
CO-1            	CIRCULAR    	1               	0         	0         	0         	1         	          
CO-2            	CIRCULAR    	1               	0         	0         	0         	1         	          
CO-3            	CIRCULAR    	1               	0         	0         	0         	1         	          

[TIMESERIES]
;;Name          	Date      	Time      	Value     
;;--------------	----------	----------	----------
Rain-Gage       	          	00:00:00  	0         
Rain-Gage       	          	00:12:00  	0.2       
Rain-Gage       	          	00:24:00  	0.5       
Rain-Gage       	          	00:36:00  	1         
Rain-Gage       	          	00:48:00  	0.8       
Rain-Gage       	          	01:00:00  	0.4       
Rain-Gage       	          	01:12:00  	0.2       
Rain-Gage       	          	01:24:00  	0.1       
Rain-Gage       	          	01:36:00  	0.05      
Rain-Gage       	          	01:48:00  	0.02      
Rain-Gage       	          	02:00:00  	0.01      
Rain-Gage       	          	02:12:00  	0         
Rain-Gage       	          	02:24:00  	0         
Rain-Gage       	          	02:36:00  	0         
Rain-Gage       	          	02:48:00  	0         
Rain-Gage       	          	03:00:00  	0         
Rain-Gage       	          	03:12:00  	0         
Rain-Gage       	          	03:24:00  	0         
Rain-Gage       	          	03:36:00  	0         
Rain-Gage       	          	03:48:00  	0         
Rain-Gage       	          	04:00:00  	0         
;
NORAIN          	          	0         	0         

[REPORT]
;;Reporting Options
INPUT     	NO
CONTROLS  	NO
SUBCATCHMENTS	ALL
NODES	ALL
LINKS	ALL

[TAGS]

[MAP]
DIMENSIONS	-112.214	-121.357	89.714	104.929
Units     	None

[COORDINATES]
;;Node          	X-Coord           	Y-Coord           
;;--------------	------------------	------------------
MH-1            	-53.750           	42.143            
MH-2            	-25.893           	-12.857           
MH-3            	-6.964            	-97.857           
O-1             	-23.281           	-58.162           
O-2             	80.536            	-108.214          

[VERTICES]
;;Link          	X-Coord           	Y-Coord           
;;--------------	------------------	------------------

[Polygons]
;;Subcatchment  	X-Coord           	Y-Coord           
;;--------------	------------------	------------------
CM-1            	-73.036           	94.643            
CM-1            	-4.821            	84.286            
CM-1            	-42.679           	49.643            
CM-1            	-103.036          	67.500            
CM-1            	-73.036           	94.643            
CM-2            	-58.036           	-74.643           
CM-2            	-22.679           	-60.714           
CM-2            	-4.821            	-92.500           
CM-2            	-61.250           	-111.071          
CM-2            	-58.036           	-74.643           

[SYMBOLS]
;;Gage          	X-Coord           	Y-Coord           
;;--------------	------------------	------------------
1               	-130.386          	-62.868           

