[TITLE]
;;Project Title/Notes
Flushing gate control scenario 3

[OPTIONS]
;;Option            	Value
FLOW_UNITS          	CFS
INFILTRATION        	HORTON
FLOW_ROUTING        	DYNWAVE
LINK_OFFSETS        	ELEVATION
MIN_SLOPE           	0
ALLOW_PONDING       	NO
SKIP_STEADY_STATE   	NO

START_DATE          	04/28/2016
START_TIME          	18:00:00
REPORT_START_DATE   	04/28/2016
REPORT_START_TIME   	18:00:00
END_DATE            	04/29/2016
END_TIME            	03:00:00
SWEEP_START         	01/01
SWEEP_END           	12/31
DRY_DAYS            	0
REPORT_STEP         	00:01:00
WET_STEP            	00:05:00
DRY_STEP            	00:05:00
ROUTING_STEP        	0:00:01 

INERTIAL_DAMPING    	PARTIAL
NORMAL_FLOW_LIMITED 	BOTH
FORCE_MAIN_EQUATION 	H-W
VARIABLE_STEP       	0.00
LENGTHENING_STEP    	0
MIN_SURFAREA        	12.557
MAX_TRIALS          	8
HEAD_TOLERANCE      	0.005
SYS_FLOW_TOL        	5
LAT_FLOW_TOL        	5
MINIMUM_STEP        	0
THREADS             	2

[EVAPORATION]
;;Data Source   	Parameters
;;--------------	----------------
CONSTANT        	0.0
DRY_ONLY        	NO

[JUNCTIONS]
;;Name          	Elevation 	MaxDepth  	InitDepth 	SurDepth  	Aponded   
;;--------------	----------	----------	----------	----------	----------
;3rdWinflow
3rdWinflow      	-28.94    	18        	0         	999       	0         
;J1
J1              	-40.1     	18        	0         	999       	0         
;J10
J10             	-42.85    	18        	0         	999       	0         
;J100
J100            	-25.83    	18        	0         	999       	0         
;J101
J101            	-26.14    	18        	0         	999       	0         
;J102
J102            	-26.45    	18        	0         	999       	0         
;J103
J103            	-26.76    	18        	0         	999       	0         
;J104
J104            	-27.07    	18        	0         	999       	0         
;J105
J105            	-27.38    	18        	0         	999       	0         
;J106
J106            	-27.69    	18        	0         	999       	0         
;J107
J107            	-28.01    	18        	0         	999       	0         
;J108
J108            	-28.32    	18        	0         	999       	0         
;J109
J109            	-28.63    	18        	0         	999       	0         
;J11
J11             	-43.15    	18        	0         	999       	0         
;J12
J12             	-43.46    	18        	0         	999       	0         
;J13
J13             	-43.77    	18        	0         	999       	0         
;J14
J14             	-44.07    	18        	0         	999       	0         
;J15
J15             	-44.38    	18        	0         	999       	0         
;J16
J16             	-44.68    	18        	0         	999       	0         
;J17
J17             	-44.99    	18        	0         	999       	0         
;J18
J18             	-45.3     	18        	0         	999       	0         
;J19
J19             	-45.6     	18        	0         	999       	0         
;J2
J2              	-40.4     	18        	0         	999       	0         
;J20
J20             	-45.91    	18        	0         	999       	0         
;J21
J21             	-46.21    	18        	0         	999       	0         
;J22
J22             	-46.52    	18        	0         	999       	0         
;J23
J23             	-46.83    	18        	0         	999       	0         
;J24
J24             	-47.13    	18        	0         	999       	0         
;J25
J25             	-47.44    	18        	0         	999       	0         
;J26
J26             	-47.74    	18        	0         	999       	0         
;J27
J27             	-48.05    	18        	0         	999       	0         
;J28
J28             	-48.36    	18        	0         	999       	0         
;J29
J29             	-48.66    	18        	0         	999       	0         
;J3
J3              	-40.71    	18        	0         	999       	0         
;J30
J30             	-48.97    	18        	0         	999       	0         
;J31
J31             	-49.27    	18        	0         	999       	0         
;J32
J32             	-49.58    	18        	0         	999       	0         
;J33
J33             	-49.88    	18        	0         	999       	0         
;J34
J34             	-50.19    	18        	0         	999       	0         
;J35
J35             	-50.5     	18        	0         	999       	0         
;J36
J36             	-50.8     	18        	0         	999       	0         
;J37
J37             	-51.11    	18        	0         	999       	0         
;J38
J38             	-51.41    	18        	0         	999       	0         
;J39
J39             	-29.26    	18        	0         	999       	0         
;J4
J4              	-41.01    	18        	0         	999       	0         
;J40
J40             	-29.58    	18        	0         	999       	0         
;J41
J41             	-29.9     	18        	0         	999       	0         
;J42
J42             	-30.22    	18        	0         	999       	0         
;J43
J43             	-30.54    	18        	0         	999       	0         
;J44
J44             	-30.85    	18        	0         	999       	0         
;J45
J45             	-31.17    	18        	0         	999       	0         
;J46
J46             	-31.49    	18        	0         	999       	0         
;J47
J47             	-31.81    	18        	0         	999       	0         
;J48
J48             	-32.13    	18        	0         	999       	0         
;J49
J49             	-32.45    	18        	0         	999       	0         
;J5
J5              	-41.32    	18        	0         	999       	0         
;J50
J50             	-32.77    	18        	0         	999       	0         
;J51
J51             	-33.09    	18        	0         	999       	0         
;J52
J52             	-33.41    	18        	0         	999       	0         
;J53
J53             	-33.73    	18        	0         	999       	0         
;J54
J54             	-34.05    	18        	0         	999       	0         
;J55
J55             	-34.36    	18        	0         	999       	0         
;J56
J56             	-34.68    	18        	0         	999       	0         
;J57
J57             	-35       	18        	0         	999       	0         
;J58
J58             	-35.32    	18        	0         	999       	0         
;J59
J59             	-35.64    	18        	0         	999       	0         
;J6
J6              	-41.63    	18        	0         	999       	0         
;J60
J60             	-35.96    	18        	0         	999       	0         
;J61
J61             	-36.28    	18        	0         	999       	0         
;J62
J62             	-36.6     	18        	0         	999       	0         
;J63
J63             	-36.92    	18        	0         	999       	0         
;J64
J64             	-37.24    	18        	0         	999       	0         
;J65
J65             	-37.56    	18        	0         	999       	0         
;J66
J66             	-37.88    	18        	0         	999       	0         
;J67
J67             	-38.19    	18        	0         	999       	0         
;J68
J68             	-38.51    	18        	0         	999       	0         
;J69
J69             	-38.83    	18        	0         	999       	0         
;J7
J7              	-41.93    	18        	0         	999       	0         
;J70
J70             	-39.15    	18        	0         	999       	0         
;J71
J71             	-39.47    	18        	0         	999       	0         
;J72
J72             	-17.11    	18        	0         	999       	0         
;J73
J73             	-17.42    	18        	0         	999       	0         
;J74
J74             	-17.73    	18        	0         	999       	0         
;J75
J75             	-18.05    	18        	0         	999       	0         
;J76
J76             	-18.36    	18        	0         	999       	0         
;J77
J77             	-18.67    	18        	0         	999       	0         
;J78
J78             	-18.98    	18        	0         	999       	0         
;J79
J79             	-19.29    	18        	0         	999       	0         
;J8
J8              	-42.24    	18        	0         	999       	0         
;J80
J80             	-19.6     	18        	0         	999       	0         
;J81
J81             	-19.91    	18        	0         	999       	0         
;J82
J82             	-20.22    	18        	0         	999       	0         
;J83
J83             	-20.54    	18        	0         	999       	0         
;J84
J84             	-20.85    	18        	0         	999       	0         
;J85
J85             	-21.16    	18        	0         	999       	0         
;J86
J86             	-21.47    	18        	0         	999       	0         
;J87
J87             	-21.78    	18        	0         	999       	0         
;J88
J88             	-22.09    	18        	0         	999       	0         
;J89
J89             	-22.4     	18        	0         	999       	0         
;J9
J9              	-42.54    	18        	0         	999       	0         
;J90
J90             	-22.71    	18        	0         	999       	0         
;J91
J91             	-23.03    	18        	0         	999       	0         
;J92
J92             	-23.34    	18        	0         	999       	0         
;J93
J93             	-23.65    	18        	0         	999       	0         
;J94
J94             	-23.96    	18        	0         	999       	0         
;J95
J95             	-24.27    	18        	0         	999       	0         
;J96
J96             	-24.58    	18        	0         	999       	0         
;J97
J97             	-24.89    	18        	0         	999       	0         
;J98
J98             	-25.2     	18        	0         	999       	0         
;J99
J99             	-25.52    	18        	0         	999       	0         

[OUTFALLS]
;;Name          	Elevation 	Type      	Stage Data      	Gated   	Route To        
;;--------------	----------	----------	----------------	--------	----------------
J110            	0         	FREE      	                	NO      	                

[STORAGE]
;;Name          	Elev.   	MaxDepth  	InitDepth 	Shape     	Curve Name/Params           	N/A     	Fevap   	Psi     	Ksat    	IMD     
;;--------------	--------	----------	-----------	----------	----------------------------	--------	--------	        	--------	--------
11thNWdrop      	-39.79  	69.09     	0         	FUNCTIONAL	0         0         1075    	0       	0       
BALLARD_DS      	-70     	98        	0         	FUNCTIONAL	0         0         2199    	0       	0       
East_Portal     	-16.8   	61.8      	0         	FUNCTIONAL	0         0         402     	0       	0       
SU1             	-16.8   	61.8      	26.6      	FUNCTIONAL	0         0         402     	0       	0       

[CONDUITS]
;;Name          	From Node       	To Node         	Length    	Roughness 	InOffset  	OutOffset 	InitFlow  	MaxFlow   
;;--------------	----------------	----------------	----------	----------	----------	----------	----------	----------
C1              	BALLARD_DS      	J110            	400       	0.01      	0         	0         	0         	0         
C1_1            	11thNWdrop      	J1              	120.257   	0.013     	-39.79    	-40.1     	0         	0         
C1_10           	J9              	J10             	120.257   	0.013     	-42.54    	-42.85    	0         	0         
C1_100          	J97             	J98             	119.774   	0.013     	-24.89    	-25.2     	0         	0         
C1_101          	J98             	J99             	119.774   	0.013     	-25.2     	-25.52    	0         	0         
C1_102          	J99             	J100            	119.774   	0.013     	-25.52    	-25.83    	0         	0         
C1_103          	J100            	J101            	119.774   	0.013     	-25.83    	-26.14    	0         	0         
C1_104          	J101            	J102            	119.774   	0.013     	-26.14    	-26.45    	0         	0         
C1_105          	J102            	J103            	119.774   	0.013     	-26.45    	-26.76    	0         	0         
C1_106          	J103            	J104            	119.774   	0.013     	-26.76    	-27.07    	0         	0         
C1_107          	J104            	J105            	119.774   	0.013     	-27.07    	-27.38    	0         	0         
C1_108          	J105            	J106            	119.774   	0.013     	-27.38    	-27.69    	0         	0         
C1_109          	J106            	J107            	119.774   	0.013     	-27.69    	-28.01    	0         	0         
C1_11           	J10             	J11             	120.257   	0.013     	-42.85    	-43.15    	0         	0         
C1_110          	J107            	J108            	119.774   	0.013     	-28.01    	-28.32    	0         	0         
C1_111          	J108            	J109            	119.774   	0.013     	-28.32    	-28.63    	0         	0         
C1_112          	J109            	3rdWinflow      	119.774   	0.013     	-28.63    	-28.94    	0         	0         
C1_12           	J11             	J12             	120.257   	0.013     	-43.15    	-43.46    	0         	0         
C1_13           	J12             	J13             	120.257   	0.013     	-43.46    	-43.77    	0         	0         
C1_14           	J13             	J14             	120.257   	0.013     	-43.77    	-44.07    	0         	0         
C1_15           	J14             	J15             	120.257   	0.013     	-44.07    	-44.38    	0         	0         
C1_16           	J15             	J16             	120.257   	0.013     	-44.38    	-44.68    	0         	0         
C1_17           	J16             	J17             	120.257   	0.013     	-44.68    	-44.99    	0         	0         
C1_18           	J17             	J18             	120.257   	0.013     	-44.99    	-45.3     	0         	0         
C1_19           	J18             	J19             	120.257   	0.013     	-45.3     	-45.6     	0         	0         
C1_2            	J1              	J2              	120.257   	0.013     	-40.1     	-40.4     	0         	0         
C1_20           	J19             	J20             	120.257   	0.013     	-45.6     	-45.91    	0         	0         
C1_21           	J20             	J21             	120.257   	0.013     	-45.91    	-46.21    	0         	0         
C1_22           	J21             	J22             	120.257   	0.013     	-46.21    	-46.52    	0         	0         
C1_23           	J22             	J23             	120.257   	0.013     	-46.52    	-46.83    	0         	0         
C1_24           	J23             	J24             	120.257   	0.013     	-46.83    	-47.13    	0         	0         
C1_25           	J24             	J25             	120.257   	0.013     	-47.13    	-47.44    	0         	0         
C1_26           	J25             	J26             	120.257   	0.013     	-47.44    	-47.74    	0         	0         
C1_27           	J26             	J27             	120.257   	0.013     	-47.74    	-48.05    	0         	0         
C1_28           	J27             	J28             	120.257   	0.013     	-48.05    	-48.36    	0         	0         
C1_29           	J28             	J29             	120.257   	0.013     	-48.36    	-48.66    	0         	0         
C1_3            	J2              	J3              	120.257   	0.013     	-40.4     	-40.71    	0         	0         
C1_30           	J29             	J30             	120.257   	0.013     	-48.66    	-48.97    	0         	0         
C1_31           	J30             	J31             	120.257   	0.013     	-48.97    	-49.27    	0         	0         
C1_32           	J31             	J32             	120.257   	0.013     	-49.27    	-49.58    	0         	0         
C1_33           	J32             	J33             	120.257   	0.013     	-49.58    	-49.88    	0         	0         
C1_34           	J33             	J34             	120.257   	0.013     	-49.88    	-50.19    	0         	0         
C1_35           	J34             	J35             	120.257   	0.013     	-50.19    	-50.5     	0         	0         
C1_36           	J35             	J36             	120.257   	0.013     	-50.5     	-50.8     	0         	0         
C1_37           	J36             	J37             	120.257   	0.013     	-50.8     	-51.11    	0         	0         
C1_38           	J37             	J38             	120.257   	0.013     	-51.11    	-51.41    	0         	0         
C1_39           	J38             	BALLARD_DS      	120.257   	0.013     	-51.41    	-51.72    	0         	0         
C1_4            	J3              	J4              	120.257   	0.013     	-40.71    	-41.01    	0         	0         
C1_40           	3rdWinflow      	J39             	119.716   	0.013     	-28.94    	-29.26    	0         	0         
C1_41           	J39             	J40             	119.716   	0.013     	-29.26    	-29.58    	0         	0         
C1_42           	J40             	J41             	119.716   	0.013     	-29.58    	-29.9     	0         	0         
C1_43           	J41             	J42             	119.716   	0.013     	-29.9     	-30.22    	0         	0         
C1_44           	J42             	J43             	119.716   	0.013     	-30.22    	-30.54    	0         	0         
C1_45           	J43             	J44             	119.716   	0.013     	-30.54    	-30.85    	0         	0         
C1_46           	J44             	J45             	119.716   	0.013     	-30.85    	-31.17    	0         	0         
C1_47           	J45             	J46             	119.716   	0.013     	-31.17    	-31.49    	0         	0         
C1_48           	J46             	J47             	119.716   	0.013     	-31.49    	-31.81    	0         	0         
C1_49           	J47             	J48             	119.716   	0.013     	-31.81    	-32.13    	0         	0         
C1_5            	J4              	J5              	120.257   	0.013     	-41.01    	-41.32    	0         	0         
C1_50           	J48             	J49             	119.716   	0.013     	-32.13    	-32.45    	0         	0         
C1_51           	J49             	J50             	119.716   	0.013     	-32.45    	-32.77    	0         	0         
C1_52           	J50             	J51             	119.716   	0.013     	-32.77    	-33.09    	0         	0         
C1_53           	J51             	J52             	119.716   	0.013     	-33.09    	-33.41    	0         	0         
C1_54           	J52             	J53             	119.716   	0.013     	-33.41    	-33.73    	0         	0         
C1_55           	J53             	J54             	119.716   	0.013     	-33.73    	-34.05    	0         	0         
C1_56           	J54             	J55             	119.716   	0.013     	-34.05    	-34.36    	0         	0         
C1_57           	J55             	J56             	119.716   	0.013     	-34.36    	-34.68    	0         	0         
C1_58           	J56             	J57             	119.716   	0.013     	-34.68    	-35       	0         	0         
C1_59           	J57             	J58             	119.716   	0.013     	-35       	-35.32    	0         	0         
C1_6            	J5              	J6              	120.257   	0.013     	-41.32    	-41.63    	0         	0         
C1_60           	J58             	J59             	119.716   	0.013     	-35.32    	-35.64    	0         	0         
C1_61           	J59             	J60             	119.716   	0.013     	-35.64    	-35.96    	0         	0         
C1_62           	J60             	J61             	119.716   	0.013     	-35.96    	-36.28    	0         	0         
C1_63           	J61             	J62             	119.716   	0.013     	-36.28    	-36.6     	0         	0         
C1_64           	J62             	J63             	119.716   	0.013     	-36.6     	-36.92    	0         	0         
C1_65           	J63             	J64             	119.716   	0.013     	-36.92    	-37.24    	0         	0         
C1_66           	J64             	J65             	119.716   	0.013     	-37.24    	-37.56    	0         	0         
C1_67           	J65             	J66             	119.716   	0.013     	-37.56    	-37.88    	0         	0         
C1_68           	J66             	J67             	119.716   	0.013     	-37.88    	-38.19    	0         	0         
C1_69           	J67             	J68             	119.716   	0.013     	-38.19    	-38.51    	0         	0         
C1_7            	J6              	J7              	120.257   	0.013     	-41.63    	-41.93    	0         	0         
C1_70           	J68             	J69             	119.716   	0.013     	-38.51    	-38.83    	0         	0         
C1_71           	J69             	J70             	119.716   	0.013     	-38.83    	-39.15    	0         	0         
C1_72           	J70             	J71             	119.716   	0.013     	-39.15    	-39.47    	0         	0         
C1_73           	J71             	11thNWdrop      	119.716   	0.013     	-39.47    	-39.79    	0         	0         
C1_74           	East_Portal     	J72             	119.774   	0.013     	-16.8     	-17.11    	0         	0         
C1_75           	J72             	J73             	119.774   	0.013     	-17.11    	-17.42    	0         	0         
C1_76           	J73             	J74             	119.774   	0.013     	-17.42    	-17.73    	0         	0         
C1_77           	J74             	J75             	119.774   	0.013     	-17.73    	-18.05    	0         	0         
C1_78           	J75             	J76             	119.774   	0.013     	-18.05    	-18.36    	0         	0         
C1_79           	J76             	J77             	119.774   	0.013     	-18.36    	-18.67    	0         	0         
C1_8            	J7              	J8              	120.257   	0.013     	-41.93    	-42.24    	0         	0         
C1_80           	J77             	J78             	119.774   	0.013     	-18.67    	-18.98    	0         	0         
C1_81           	J78             	J79             	119.774   	0.013     	-18.98    	-19.29    	0         	0         
C1_82           	J79             	J80             	119.774   	0.013     	-19.29    	-19.6     	0         	0         
C1_83           	J80             	J81             	119.774   	0.013     	-19.6     	-19.91    	0         	0         
C1_84           	J81             	J82             	119.774   	0.013     	-19.91    	-20.22    	0         	0         
C1_85           	J82             	J83             	119.774   	0.013     	-20.22    	-20.54    	0         	0         
C1_86           	J83             	J84             	119.774   	0.013     	-20.54    	-20.85    	0         	0         
C1_87           	J84             	J85             	119.774   	0.013     	-20.85    	-21.16    	0         	0         
C1_88           	J85             	J86             	119.774   	0.013     	-21.16    	-21.47    	0         	0         
C1_89           	J86             	J87             	119.774   	0.013     	-21.47    	-21.78    	0         	0         
C1_9            	J8              	J9              	120.257   	0.013     	-42.24    	-42.54    	0         	0         
C1_90           	J87             	J88             	119.774   	0.013     	-21.78    	-22.09    	0         	0         
C1_91           	J88             	J89             	119.774   	0.013     	-22.09    	-22.4     	0         	0         
C1_92           	J89             	J90             	119.774   	0.013     	-22.4     	-22.71    	0         	0         
C1_93           	J90             	J91             	119.774   	0.013     	-22.71    	-23.03    	0         	0         
C1_94           	J91             	J92             	119.774   	0.013     	-23.03    	-23.34    	0         	0         
C1_95           	J92             	J93             	119.774   	0.013     	-23.34    	-23.65    	0         	0         
C1_96           	J93             	J94             	119.774   	0.013     	-23.65    	-23.96    	0         	0         
C1_97           	J94             	J95             	119.774   	0.013     	-23.96    	-24.27    	0         	0         
C1_98           	J95             	J96             	119.774   	0.013     	-24.27    	-24.58    	0         	0         
C1_99           	J96             	J97             	119.774   	0.013     	-24.58    	-24.89    	0         	0         

[ORIFICES]
;;Name          	From Node       	To Node         	Type        	Offset    	Qcoeff    	Gated   	CloseTime 
;;--------------	----------------	----------------	------------	----------	----------	--------	----------
OF1             	SU1             	East_Portal     	SIDE        	-16.8     	0.65      	NO      	0         

[XSECTIONS]
;;Link          	Shape       	Geom1           	Geom2     	Geom3     	Geom4     	Barrels   	Culvert   
;;--------------	------------	----------------	----------	----------	----------	----------	----------
C1              	CIRCULAR    	1               	0         	0         	0         	1         	          
C1_1            	CIRCULAR    	18              	0         	0         	0         	1         	          
C1_10           	CIRCULAR    	18              	0         	0         	0         	1         	          
C1_100          	CIRCULAR    	18              	0         	0         	0         	1         	          
C1_101          	CIRCULAR    	18              	0         	0         	0         	1         	          
C1_102          	CIRCULAR    	18              	0         	0         	0         	1         	          
C1_103          	CIRCULAR    	18              	0         	0         	0         	1         	          
C1_104          	CIRCULAR    	18              	0         	0         	0         	1         	          
C1_105          	CIRCULAR    	18              	0         	0         	0         	1         	          
C1_106          	CIRCULAR    	18              	0         	0         	0         	1         	          
C1_107          	CIRCULAR    	18              	0         	0         	0         	1         	          
C1_108          	CIRCULAR    	18              	0         	0         	0         	1         	          
C1_109          	CIRCULAR    	18              	0         	0         	0         	1         	          
C1_11           	CIRCULAR    	18              	0         	0         	0         	1         	          
C1_110          	CIRCULAR    	18              	0         	0         	0         	1         	          
C1_111          	CIRCULAR    	18              	0         	0         	0         	1         	          
C1_112          	CIRCULAR    	18              	0         	0         	0         	1         	          
C1_12           	CIRCULAR    	18              	0         	0         	0         	1         	          
C1_13           	CIRCULAR    	18              	0         	0         	0         	1         	          
C1_14           	CIRCULAR    	18              	0         	0         	0         	1         	          
C1_15           	CIRCULAR    	18              	0         	0         	0         	1         	          
C1_16           	CIRCULAR    	18              	0         	0         	0         	1         	          
C1_17           	CIRCULAR    	18              	0         	0         	0         	1         	          
C1_18           	CIRCULAR    	18              	0         	0         	0         	1         	          
C1_19           	CIRCULAR    	18              	0         	0         	0         	1         	          
C1_2            	CIRCULAR    	18              	0         	0         	0         	1         	          
C1_20           	CIRCULAR    	18              	0         	0         	0         	1         	          
C1_21           	CIRCULAR    	18              	0         	0         	0         	1         	          
C1_22           	CIRCULAR    	18              	0         	0         	0         	1         	          
C1_23           	CIRCULAR    	18              	0         	0         	0         	1         	          
C1_24           	CIRCULAR    	18              	0         	0         	0         	1         	          
C1_25           	CIRCULAR    	18              	0         	0         	0         	1         	          
C1_26           	CIRCULAR    	18              	0         	0         	0         	1         	          
C1_27           	CIRCULAR    	18              	0         	0         	0         	1         	          
C1_28           	CIRCULAR    	18              	0         	0         	0         	1         	          
C1_29           	CIRCULAR    	18              	0         	0         	0         	1         	          
C1_3            	CIRCULAR    	18              	0         	0         	0         	1         	          
C1_30           	CIRCULAR    	18              	0         	0         	0         	1         	          
C1_31           	CIRCULAR    	18              	0         	0         	0         	1         	          
C1_32           	CIRCULAR    	18              	0         	0         	0         	1         	          
C1_33           	CIRCULAR    	18              	0         	0         	0         	1         	          
C1_34           	CIRCULAR    	18              	0         	0         	0         	1         	          
C1_35           	CIRCULAR    	18              	0         	0         	0         	1         	          
C1_36           	CIRCULAR    	18              	0         	0         	0         	1         	          
C1_37           	CIRCULAR    	18              	0         	0         	0         	1         	          
C1_38           	CIRCULAR    	18              	0         	0         	0         	1         	          
C1_39           	CIRCULAR    	18              	0         	0         	0         	1         	          
C1_4            	CIRCULAR    	18              	0         	0         	0         	1         	          
C1_40           	CIRCULAR    	18              	0         	0         	0         	1         	          
C1_41           	CIRCULAR    	18              	0         	0         	0         	1         	          
C1_42           	CIRCULAR    	18              	0         	0         	0         	1         	          
C1_43           	CIRCULAR    	18              	0         	0         	0         	1         	          