[TITLE]
;;Project Title/Notes
Rain garden low impact development control

[OPTIONS]
;;Option            	Value
FLOW_UNITS          	LPS
INFILTRATION        	GREEN_AMPT
FLOW_ROUTING        	KINWAVE
LINK_OFFSETS        	DEPTH
MIN_SLOPE           	0
ALLOW_PONDING       	NO
SKIP_STEADY_STATE   	NO

START_DATE          	01/01/2005
START_TIME          	00:00:00
REPORT_START_DATE   	01/01/2005
REPORT_START_TIME   	00:00:00
END_DATE            	01/02/2005
END_TIME            	00:00:00
SWEEP_START         	01/01
SWEEP_END           	12/31
DRY_DAYS            	0
REPORT_STEP         	00:15:00
WET_STEP            	00:05:00
DRY_STEP            	01:00:00
ROUTING_STEP        	0:00:30 

[RAINGAGES]
;;Name          	Format   	Interval	SCF     	Source    
;;--------------	---------	------	------	----------
16              	INTENSITY	0:30    	1.0     	TIMESERIES	DesignStorm     

[SUBCATCHMENTS]
;;Name          	Rain Gage       	Outlet          	Area    	%Imperv 	Width   	%Slope  	CurbLen 	SnowPack        
;;--------------	----------------	----------------	--------	--------	--------	--------	--------	----------------
PitchedRoof     	16              	RainGarden      	0.1     	100     	100     	33      	0       	                
RainGarden      	16              	Drain           	0.01    	0       	10      	0.5     	0       	                

[SUBAREAS]
;;Subcatchment  	N-Imperv  	N-Perv    	S-Imperv  	S-Perv    	PctZero   	RouteTo   	PctRouted 
;;--------------	----------	----------	----------	----------	----------	----------	----------
PitchedRoof     	0.024     	0.1       	0         	0.05      	25        	OUTLET    
RainGarden      	0.01      	0.1       	0.05      	0.05      	25        	OUTLET    

[INFILTRATION]
;;Subcatchment  	Suction   	Ksat      	IMD       
;;--------------	----------	----------	----------
PitchedRoof     	3.0       	0.5       	4         
RainGarden      	110       	10        	0.25      

[LID_CONTROLS]
;;Name          	Type/Layer	Parameters
;;--------------	----------	----------
RainGarden      	BC
RainGarden      	SURFACE   	150       	0.0       	0         	0         	5         
RainGarden      	SOIL      	450       	0.4       	0.1       	0.05      	100       	10.0      	40        
RainGarden      	STORAGE   	50        	0.67      	1000      	0         
RainGarden      	DRAIN     	0         	0.5       	0         	6         


[LID_USAGE]
;;Subcatchment  	LID Process     	Number 	Area      	Width     	InitSat   	FromImp   	ToPerv    	RptFile                 	DrainTo         
;;--------------	----------------	-------	----------	----------	----------	----------	----------	------------------------	----------------
RainGarden      	RainGarden      	1      	100.00    	10        	0         	0         	0         	"bc_srg.txt"

[OUTFALLS]
;;Name          	Elevation 	Type      	Stage Data      	Gated   	Route To        
;;--------------	----------	----------	----------------	--------	----------------
Drain           	0         	FREE      	                	NO      	                

[TIMESERIES]
;;Name          	Date      	Time      	Value     
;;--------------	----------	----------	----------
DesignStorm     	          	0:00      	0.009     
DesignStorm     	          	0:30      	0.028     
DesignStorm     	          	1:00      	0.046     
DesignStorm     	          	1:30      	0.065     
DesignStorm     	          	2:00      	0.083     
DesignStorm     	          	2:30      	0.102     
DesignStorm     	          	3:00      	0.120     
DesignStorm     	          	3:30      	0.139     
DesignStorm     	          	4:00      	0.157     
DesignStorm     	          	4:30      	0.176     
DesignStorm     	          	5:00      	0.194     
DesignStorm     	          	5:30      	0.213     
DesignStorm     	          	6:00      	0.231     
DesignStorm     	          	6:30      	0.250     
DesignStorm     	          	7:00      	0.269     
DesignStorm     	          	7:30      	0.287     
DesignStorm     	          	8:00      	0.306     
DesignStorm     	          	8:30      	0.324     
DesignStorm     	          	9:00      	0.328     
DesignStorm     	          	9:30      	0.317     
DesignStorm     	          	10:00     	0.306     
DesignStorm     	          	10:30     	0.294     
DesignStorm     	          	11:00     	0.283     
DesignStorm     	          	11:30     	0.272     
DesignStorm     	          	12:00     	0.261     
DesignStorm     	          	12:30     	0.250     
DesignStorm     	          	13:00     	0.239     
DesignStorm     	          	13:30     	0.228     
DesignStorm     	          	14:00     	0.217     
DesignStorm     	          	14:30     	0.206     
DesignStorm     	          	15:00     	0.194     
DesignStorm     	          	15:30     	0.183     
DesignStorm     	          	16:00     	0.172     
DesignStorm     	          	16:30     	0.161     
DesignStorm     	          	17:00     	0.150     
DesignStorm     	          	17:30     	0.139     
DesignStorm     	          	18:00     	0.128     
DesignStorm     	          	18:30     	0.117     
DesignStorm     	          	19:00     	0.106     
DesignStorm     	          	19:30     	0.094     
DesignStorm     	          	20:00     	0.083     
DesignStorm     	          	20:30     	0.072     
DesignStorm     	          	21:00     	0.061     
DesignStorm     	          	21:30     	0.050     
DesignStorm     	          	22:00     	0.039     
DesignStorm     	          	22:30     	0.028     
DesignStorm     	          	23:00     	0.017     
DesignStorm     	          	23:30     	0.006     
DesignStorm     	          	24:00     	0         

[REPORT]
;;Reporting Options
INPUT     	NO
CONTROLS  	NO
SUBCATCHMENTS	ALL
NODES	ALL
LINKS	ALL

[TAGS]

[MAP]
DIMENSIONS	2953.507	4764.640	4462.398	6592.643
Units     	None

[COORDINATES]
;;Node          	X-Coord           	Y-Coord           
;;--------------	------------------	------------------
Drain           	3022.093          	4995.107          

[VERTICES]
;;Link          	X-Coord           	Y-Coord           
;;--------------	------------------	------------------

[Polygons]
;;Subcatchment  	X-Coord           	Y-Coord           
;;--------------	------------------	------------------
PitchedRoof     	4393.812          	6010.668          
PitchedRoof     	4393.812          	5435.226          
PitchedRoof     	3125.709          	5435.226          
PitchedRoof     	3125.709          	6010.668          
RainGarden      	3921.010          	5127.590          
RainGarden      	3921.010          	4847.731          
RainGarden      	3609.167          	4847.731          
RainGarden      	3609.167          	5127.590          

[SYMBOLS]
;;Gage          	X-Coord           	Y-Coord           
;;--------------	------------------	------------------
16              	3757.657          	6509.552          

